
     RDKit          3D

 19 20  0  0  0  0  0  0  0  0999 V2000
    1.0890    0.2540    3.8730 C   0  0  0  0  0  0  0  0  0  0  0  0
    0.8250   -0.6690    2.7280 C   0  0  0  0  0  0  0  0  0  0  0  0
    0.8440   -0.1480    1.3750 C   0  0  0  0  0  0  0  0  0  0  0  0
    0.6000   -1.0240    0.3050 N   0  0  0  0  0  0  0  0  0  0  0  0
    0.6550   -0.6080   -1.0610 C   0  0  1  0  0  0  0  0  0  0  0  0
   -0.6000   -0.3550   -1.8110 C   0  0  0  0  0  0  0  0  0  0  0  0
   -0.3200    0.7500   -2.7260 C   0  0  2  0  0  0  0  0  0  0  0  0
   -0.5170    0.3460   -4.1300 N   0  0  0  0  0  0  0  0  0  0  0  0
   -0.8050    1.0550   -5.0330 N   0  0  0  0  0  0  0  0  0  0  0  0
   -1.0740    1.2210   -6.0800 N   0  0  0  0  0  0  0  0  0  0  0  0
    1.0940    1.1440   -2.4740 C   0  0  1  0  0  0  0  0  0  0  0  0
    1.3160    2.5820   -2.5510 C   0  0  0  0  0  0  0  0  0  0  0  0
    0.5040    3.2890   -1.7010 O   0  0  0  0  0  0  0  0  0  0  0  0
    1.4530    0.5320   -1.2570 O   0  0  0  0  0  0  0  0  0  0  0  0
    0.3600   -2.3710    0.5740 C   0  0  0  0  0  0  0  0  0  0  0  0
    0.1720   -3.1780   -0.3740 O   0  0  0  0  0  0  0  0  0  0  0  0
    0.3440   -2.8490    1.8620 N   0  0  0  0  0  0  0  0  0  0  0  0
    0.5690   -2.0320    2.9410 C   0  0  0  0  0  0  0  0  0  0  0  0
    0.5450   -2.5190    4.0790 O   0  0  0  0  0  0  0  0  0  0  0  0
  1  2  1  0
  2  3  2  0
  3  4  1  0
  5  4  1  1
  5  6  1  0
  6  7  1  0
  7  8  1  6
  8  9  2  0
  9 10  2  0
  7 11  1  0
 11 12  1  1
 12 13  1  0
 11 14  1  0
  4 15  1  0
 15 16  2  0
 15 17  1  0
 17 18  1  0
 18 19  2  0
  2 18  1  0
  5 14  1  0
M  CHG  2   9   1  10  -1
M  END
$$$$

     RDKit          3D

 15 15  0  0  0  0  0  0  0  0999 V2000
   -2.6780    5.8160   -2.0400 N   0  0  0  0  0  0  0  0  0  0  0  0
   -2.3450    4.8510   -1.4530 N   0  0  0  0  0  0  0  0  0  0  0  0
   -2.0890    3.7040   -1.5650 N   0  0  0  0  0  0  0  0  0  0  0  0
   -1.7320    2.6860   -0.6730 C   0  0  0  0  0  0  0  0  0  0  0  0
   -0.5980    2.8850    0.2010 C   0  0  2  0  0  0  0  0  0  0  0  0
    0.5420    3.2730   -0.5010 O   0  0  0  0  0  0  0  0  0  0  0  0
   -0.2090    1.7760    1.1210 C   0  0  0  0  0  0  0  0  0  0  0  0
   -0.6890    0.5070    0.9750 C   0  0  0  0  0  0  0  0  0  0  0  0
   -0.4090   -0.5040    1.9270 C   0  0  0  0  0  0  0  0  0  0  0  0
    0.3600   -0.2120    3.0240 C   0  0  0  0  0  0  0  0  0  0  0  0
    0.6340   -1.1620    3.9610 N   0  0  0  0  0  0  0  0  0  0  0  0
    0.2120   -2.3640    3.8170 O   0  0  0  0  0  0  0  0  0  0  0  0
    1.3210   -0.8340    5.0190 O   0  0  0  0  0  0  0  0  0  0  0  0
    0.8620    1.0690    3.1710 C   0  0  0  0  0  0  0  0  0  0  0  0
    0.5640    2.0360    2.2130 C   0  0  0  0  0  0  0  0  0  0  0  0
  1  2  2  0
  2  3  2  0
  3  4  1  0
  4  5  1  0
  5  6  1  6
  5  7  1  0
  7  8  2  0
  8  9  1  0
  9 10  2  0
 10 11  1  0
 11 12  2  0
 11 13  1  0
 10 14  1  0
 14 15  2  0
  7 15  1  0
M  CHG  4   1  -1   2   1  11   1  13  -1
M  END
$$$$

     RDKit          3D

 26 28  0  0  0  0  0  0  0  0999 V2000
    1.3000    2.4890    4.4440 C   0  0  0  0  0  0  0  0  0  0  0  0
    1.7460    1.5990    3.2780 C   0  0  1  0  0  0  0  0  0  0  0  0
    2.0300    0.1700    3.7820 C   0  0  0  0  0  0  0  0  0  0  0  0
    0.1740    1.6020    1.9090 S   0  0  0  0  0  0  0  0  0  0  0  0
    1.1120    2.8230    0.7040 C   0  0  2  0  0  0  0  0  0  0  0  0
    1.7910    2.6590   -0.8030 C   0  0  2  0  0  0  0  0  0  0  0  0
    1.2560    1.5970   -1.5710 N   0  0  0  0  0  0  0  0  0  0  0  0
    0.5190    1.8640   -2.6980 C   0  0  0  0  0  0  0  0  0  0  0  0
    0.1440    2.9860   -2.9660 O   0  0  0  0  0  0  0  0  0  0  0  0
    0.1370    0.6330   -3.4980 C   0  0  2  0  0  0  0  0  0  0  0  0
    1.3260   -0.1180   -3.8550 N   0  0  0  0  0  0  0  0  0  0  0  0
    1.6270   -1.2020   -3.7560 N   0  0  0  0  0  0  0  0  0  0  0  0
    2.2540   -2.0930   -3.8710 N   0  0  0  0  0  0  0  0  0  0  0  0
   -0.7440    0.9720   -4.6990 C   0  0  0  0  0  0  0  0  0  0  0  0
   -2.1260    1.0910   -4.5170 C   0  0  0  0  0  0  0  0  0  0  0  0
   -2.9750    1.3740   -5.6010 C   0  0  0  0  0  0  0  0  0  0  0  0
   -2.4140    1.5390   -6.8880 C   0  0  0  0  0  0  0  0  0  0  0  0
   -1.0260    1.3990   -7.0770 C   0  0  0  0  0  0  0  0  0  0  0  0
   -0.1960    1.1130   -5.9770 C   0  0  0  0  0  0  0  0  0  0  0  0
    3.0810    2.2890   -0.0030 C   0  0  0  0  0  0  0  0  0  0  0  0
    4.1730    1.9270   -0.3960 O   0  0  0  0  0  0  0  0  0  0  0  0
    2.5620    2.4900    1.1770 N   0  0  0  0  0  0  0  0  0  0  0  0
    2.9660    2.0870    2.4900 C   0  0  1  0  0  0  0  0  0  0  0  0
    3.6950    3.1020    3.2200 C   0  0  0  0  0  0  0  0  0  0  0  0
    4.6120    2.7540    4.0460 O   0  0  0  0  0  0  0  0  0  0  0  0
    3.4880    4.3510    2.9970 O   0  0  0  0  0  0  0  0  0  0  0  0
  2  1  1  1
  2  3  1  0
  2  4  1  0
  5  4  1  1
  5  6  1  0
  6  7  1  6
  7  8  1  0
  8  9  2  0
  8 10  1  0
 10 11  1  6
 11 12  2  0
 12 13  2  0
 10 14  1  0
 14 15  2  0
 15 16  1  0
 16 17  2  0
 17 18  1  0
 18 19  2  0
  6 20  1  0
 20 21  2  0
 20 22  1  0
 22 23  1  0
 23 24  1  1
 24 25  2  0
 24 26  1  0
  2 23  1  0
  5 22  1  0
 14 19  1  0
M  CHG  2  12   1  13  -1
M  END
$$$$

     RDKit          3D

 10  9  0  0  0  0  0  0  0  0999 V2000
    0.1140    5.3230   -1.1100 C   0  0  0  0  0  0  0  0  0  0  0  0
    0.5660    3.9400   -0.4170 S   0  0  0  0  0  0  0  0  0  0  0  0
    1.9840    4.0040   -0.1330 O   0  0  0  0  0  0  0  0  0  0  0  0
    0.1990    2.5430   -1.2280 C   0  0  0  0  0  0  0  0  0  0  0  0
    0.8200    1.3640   -0.8010 C   0  0  0  0  0  0  0  0  0  0  0  0
    0.3740    0.1210   -1.4280 C   0  0  0  0  0  0  0  0  0  0  0  0
    1.0770   -1.0290   -0.9950 C   0  0  0  0  0  0  0  0  0  0  0  0
    0.7740   -2.1870   -1.5930 N   0  0  0  0  0  0  0  0  0  0  0  0
    1.4070   -3.2710   -1.2630 C   0  0  0  0  0  0  0  0  0  0  0  0
    1.0420   -4.5550   -1.9580 S   0  0  0  0  0  0  0  0  0  0  0  0
  2  1  1  6
  2  3  2  0
  2  4  1  0
  4  5  1  0
  5  6  1  0
  6  7  1  0
  7  8  1  0
  8  9  2  0
  9 10  2  0
M  END
$$$$

     RDKit          3D

 11 11  0  0  0  0  0  0  0  0999 V2000
    4.7370    1.9460    6.0190 S   0  0  0  0  0  0  0  0  0  0  0  0
    4.9920    1.3300    4.5460 C   0  0  0  0  0  0  0  0  0  0  0  0
    3.9970    0.7230    4.0200 N   0  0  0  0  0  0  0  0  0  0  0  0
    4.1030    0.0530    2.7250 C   0  0  0  0  0  0  0  0  0  0  0  0
    2.9050   -0.5950    2.3040 C   0  0  0  0  0  0  0  0  0  0  0  0
    2.8420   -1.3440    1.0490 C   0  0  0  0  0  0  0  0  0  0  0  0
    3.2440   -0.7680   -0.1400 C   0  0  0  0  0  0  0  0  0  0  0  0
    3.1830   -1.4510   -1.3300 C   0  0  0  0  0  0  0  0  0  0  0  0
    2.7060   -2.7640   -1.3780 C   0  0  0  0  0  0  0  0  0  0  0  0
    2.3140   -3.3500   -0.1610 C   0  0  0  0  0  0  0  0  0  0  0  0
    2.3810   -2.6430    0.9920 C   0  0  0  0  0  0  0  0  0  0  0  0
  1  2  2  0
  2  3  2  0
  3  4  1  0
  4  5  1  0
  5  6  1  0
  6  7  2  0
  7  8  1  0
  8  9  2  0
  9 10  1  0
 10 11  2  0
  6 11  1  0
M  END
$$$$

     RDKit          3D

 29 30  0  0  0  0  0  0  0  0999 V2000
   -4.7150    0.3090    7.5950 C   0  0  0  0  0  0  0  0  0  0  0  0
   -4.7780    0.0860    6.3510 O   0  0  0  0  0  0  0  0  0  0  0  0
   -3.8300    0.5010    5.5750 C   0  0  0  0  0  0  0  0  0  0  0  0
   -2.9460    1.1450    5.8830 O   0  0  0  0  0  0  0  0  0  0  0  0
   -3.9980    0.1110    4.2810 C   0  0  0  0  0  0  0  0  0  0  0  0
   -3.0030    0.3310    3.3680 C   0  0  0  0  0  0  0  0  0  0  0  0
   -3.4060    0.1300    2.0780 C   0  0  0  0  0  0  0  0  0  0  0  0
   -2.4980    0.2040    1.1080 C   0  0  0  0  0  0  0  0  0  0  0  0
   -2.9410    0.0820   -0.1340 C   0  0  0  0  0  0  0  0  0  0  0  0
   -2.1770   -0.3650   -1.0810 C   0  0  0  0  0  0  0  0  0  0  0  0
   -2.3000    0.1320   -2.3610 C   0  0  2  0  0  0  0  0  0  0  0  0
   -3.4340   -0.1990   -3.2010 C   0  0  0  0  0  0  0  0  0  0  0  0
   -4.5530   -0.0390   -2.8030 O   0  0  0  0  0  0  0  0  0  0  0  0
   -3.0340   -0.0820   -4.5710 C   0  0  0  0  0  0  0  0  0  0  0  0
   -1.6210    0.1320   -4.4780 C   0  0  2  0  0  0  0  0  0  0  0  0
   -0.9790   -0.4430   -5.4380 O   0  0  0  0  0  0  0  0  0  0  0  0
   -1.2170   -0.4030   -3.1980 C   0  0  1  0  0  0  0  0  0  0  0  0
   -0.0060   -0.1280   -2.5920 C   0  0  0  0  0  0  0  0  0  0  0  0
    1.1640   -0.0850   -3.1800 C   0  0  0  0  0  0  0  0  0  0  0  0
    2.2790   -0.2740   -2.3990 C   0  0  2  0  0  0  0  0  0  0  0  0
    2.2030    0.4070   -1.3370 O   0  0  0  0  0  0  0  0  0  0  0  0
    3.3880    0.0960   -3.2310 C   0  0  0  0  0  0  0  0  0  0  0  0
    4.4660    0.1410   -2.6620 O   0  0  0  0  0  0  0  0  0  0  0  0
    5.5230    0.3070   -3.4610 C   0  0  0  0  0  0  0  0  0  0  0  0
    6.5550    0.9250   -3.0160 C   0  0  0  0  0  0  0  0  0  0  0  0
    7.6340    1.0950   -3.7520 C   0  0  0  0  0  0  0  0  0  0  0  0
    7.6750    0.5880   -5.0170 C   0  0  0  0  0  0  0  0  0  0  0  0
    6.6250   -0.0570   -5.4890 C   0  0  0  0  0  0  0  0  0  0  0  0
    5.5450   -0.1960   -4.7320 C   0  0  0  0  0  0  0  0  0  0  0  0
  1  2  1  0
  2  3  1  0
  3  4  2  0
  3  5  1  0
  5  6  1  0
  6  7  1  0
  7  8  2  0
  8  9  2  0
  9 10  1  0
 11 10  1  1
 11 12  1  0
 12 13  2  0
 12 14  1  0
 14 15  1  0
 15 16  1  6
 15 17  1  0
 17 18  1  1
 18 19  2  3
 19 20  1  0
 20 21  1  1
 20 22  1  0
 22 23  1  0
 23 24  1  0
 24 25  2  0
 25 26  1  0
 26 27  2  0
 27 28  1  0
 28 29  2  0
 11 17  1  0
 24 29  1  0
M  END
$$$$

     RDKit          3D

 29 31  0  0  0  0  0  0  0  0999 V2000
   -6.3100    4.1740   -6.0020 C   0  0  0  0  0  0  0  0  0  0  0  0
   -5.0690    3.5810   -5.7120 C   0  0  0  0  0  0  0  0  0  0  0  0
   -4.4180    3.8830   -4.3880 C   0  0  0  0  0  0  0  0  0  0  0  0
   -4.5680    5.1550   -3.7830 C   0  0  0  0  0  0  0  0  0  0  0  0
   -3.9570    5.3780   -2.5640 C   0  0  0  0  0  0  0  0  0  0  0  0
   -3.1820    4.3720   -2.0150 C   0  0  0  0  0  0  0  0  0  0  0  0
   -3.0530    3.1340   -2.5750 C   0  0  0  0  0  0  0  0  0  0  0  0
   -2.2680    2.1890   -2.0090 N   0  0  0  0  0  0  0  0  0  0  0  0
   -2.6170    0.9220   -1.5680 C   0  0  0  0  0  0  0  0  0  0  0  0
   -3.8700    0.4720   -1.6350 N   0  0  0  0  0  0  0  0  0  0  0  0
   -4.1450   -0.7680   -1.1540 C   0  0  0  0  0  0  0  0  0  0  0  0
   -3.2450   -1.5720   -0.6170 N   0  0  0  0  0  0  0  0  0  0  0  0
   -1.9490   -1.1360   -0.5570 C   0  0  0  0  0  0  0  0  0  0  0  0
   -0.9690   -1.9840   -0.0130 C   0  0  0  0  0  0  0  0  0  0  0  0
    0.3530   -1.5870    0.0700 C   0  0  0  0  0  0  0  0  0  0  0  0
    1.3210   -2.4360    0.5950 O   0  0  0  0  0  0  0  0  0  0  0  0
    0.9730   -3.5680    1.2610 C   0  0  0  0  0  0  0  0  0  0  0  0
    2.1360   -4.3630    1.7310 C   0  0  0  0  0  0  0  0  0  0  0  0
    2.4180   -4.1380    3.0530 O   0  0  0  0  0  0  0  0  0  0  0  0
    3.3950   -4.9320    3.6280 C   0  0  0  0  0  0  0  0  0  0  0  0
    0.7130   -0.3430   -0.3830 C   0  0  0  0  0  0  0  0  0  0  0  0
    2.0620    0.0310   -0.2890 O   0  0  0  0  0  0  0  0  0  0  0  0
    2.6080    1.1160   -0.9760 C   0  0  0  0  0  0  0  0  0  0  0  0
    4.0750    1.3340   -0.6210 C   0  0  0  0  0  0  0  0  0  0  0  0
    4.8820    0.2880   -0.9800 O   0  0  0  0  0  0  0  0  0  0  0  0
    6.2500    0.4030   -0.6970 C   0  0  0  0  0  0  0  0  0  0  0  0
   -0.2320    0.4890   -0.9260 C   0  0  0  0  0  0  0  0  0  0  0  0
   -1.5950    0.1030   -1.0270 C   0  0  0  0  0  0  0  0  0  0  0  0
   -3.6890    2.9130   -3.7920 C   0  0  0  0  0  0  0  0  0  0  0  0
  1  2  3  0
  2  3  1  0
  3  4  2  0
  4  5  1  0
  5  6  2  0
  6  7  1  0
  7  8  1  0
  8  9  1  0
  9 10  2  0
 10 11  1  0
 11 12  2  0
 12 13  1  0
 13 14  2  0
 14 15  1  0
 15 16  1  0
 16 17  1  0
 17 18  1  0
 18 19  1  0
 19 20  1  0
 15 21  2  0
 21 22  1  0
 22 23  1  0
 23 24  1  0
 24 25  1  0
 25 26  1  0
 21 27  1  0
 27 28  2  0
  7 29  2  0
  3 29  1  0
  9 28  1  0
 13 28  1  0
M  END
$$$$

     RDKit          3D

 21 23  0  0  0  0  0  0  0  0999 V2000
   -0.0990   -1.8430    4.0790 O   0  0  0  0  0  0  0  0  0  0  0  0
   -0.2990   -1.2260    3.0130 C   0  0  0  0  0  0  0  0  0  0  0  0
   -1.4530   -1.4050    2.2770 N   0  0  0  0  0  0  0  0  0  0  0  0
   -1.6590   -0.6880    1.1090 C   0  0  0  0  0  0  0  0  0  0  0  0
   -2.7980   -0.8800    0.3850 C   0  0  0  0  0  0  0  0  0  0  0  0
   -3.0290   -0.2260   -0.7940 C   0  0  0  0  0  0  0  0  0  0  0  0
   -2.1120    0.6380   -1.2680 C   0  0  0  0  0  0  0  0  0  0  0  0
   -2.3530    1.4700   -2.7570 Cl  0  0  0  0  0  0  0  0  0  0  0  0
   -0.9450    0.8720   -0.5760 C   0  0  0  0  0  0  0  0  0  0  0  0
   -0.6640    0.2150    0.6620 C   0  0  0  0  0  0  0  0  0  0  0  0
    0.6180    0.3950    1.3840 C   0  0  1  0  0  0  0  0  0  0  0  0
    1.7970    0.0430    0.4000 C   0  0  0  0  0  0  0  0  0  0  0  0
    1.9640   -1.3620    0.1520 C   0  0  0  0  0  0  0  0  0  0  0  0
    3.1180   -1.6820   -0.8470 C   0  0  2  0  0  0  0  0  0  0  0  0
    2.7360   -2.3480   -2.0500 C   0  0  0  0  0  0  0  0  0  0  0  0
    3.5410   -3.0680   -0.9680 C   0  0  0  0  0  0  0  0  0  0  0  0
    0.7260    1.8880    1.9300 C   0  0  2  0  0  0  0  0  0  0  0  0
    0.5140    2.8180    1.0070 F   0  0  0  0  0  0  0  0  0  0  0  0
    1.9830    2.1540    2.4690 F   0  0  0  0  0  0  0  0  0  0  0  0
   -0.1380    2.1560    2.9440 F   0  0  0  0  0  0  0  0  0  0  0  0
    0.7290   -0.4250    2.5750 O   0  0  0  0  0  0  0  0  0  0  0  0
  1  2  2  0
  2  3  1  0
  3  4  1  0
  4  5  2  0
  5  6  1  0
  6  7  2  0
  7  8  1  0
  7  9  1  0
  9 10  2  0
 10 11  1  0
 11 12  1  6
 12 13  3  0
 14 13  1  1
 14 15  1  0
 15 16  1  0
 11 17  1  0
 17 18  1  6
 17 19  1  0
 17 20  1  0
 11 21  1  0
  2 21  1  0
  4 10  1  0
 14 16  1  0
M  END
$$$$

     RDKit          3D

 14 14  0  0  0  0  0  0  0  0999 V2000
    3.7030    1.6500    4.2700 Cl  0  0  0  0  0  0  0  0  0  0  0  0
    2.5600    1.2860    3.0170 C   0  0  0  0  0  0  0  0  0  0  0  0
    1.4650    2.1140    2.8250 C   0  0  0  0  0  0  0  0  0  0  0  0
    0.5430    1.8420    1.8360 C   0  0  0  0  0  0  0  0  0  0  0  0
   -0.8440    2.8830    1.5670 Cl  0  0  0  0  0  0  0  0  0  0  0  0
    0.7060    0.7290    1.0260 C   0  0  0  0  0  0  0  0  0  0  0  0
   -0.2370    0.5040    0.0610 O   0  0  0  0  0  0  0  0  0  0  0  0
   -0.0540   -0.5560   -0.8180 C   0  0  0  0  0  0  0  0  0  0  0  0
   -1.2180   -0.7070   -1.7520 C   0  0  0  0  0  0  0  0  0  0  0  0
   -1.2180   -1.9650   -2.4440 C   0  0  0  0  0  0  0  0  0  0  0  0
   -2.7370   -2.3360   -3.6120 I   0  0  0  0  0  0  0  0  0  0  0  0
    1.7970   -0.1050    1.2060 C   0  0  0  0  0  0  0  0  0  0  0  0
    2.7460    0.1590    2.2050 C   0  0  0  0  0  0  0  0  0  0  0  0
    4.1040   -0.8920    2.4310 Cl  0  0  0  0  0  0  0  0  0  0  0  0
  1  2  1  0
  2  3  2  0
  3  4  1  0
  4  5  1  0
  4  6  2  0
  6  7  1  0
  7  8  1  0
  8  9  1  0
  9 10  3  0
 10 11  1  0
  6 12  1  0
 12 13  2  0
 13 14  1  0
  2 13  1  0
M  END
$$$$

     RDKit          3D

 22 23  0  0  0  0  0  0  0  0999 V2000
   -0.9360    1.2220   -2.4530 C   0  0  0  0  0  0  0  0  0  0  0  0
   -1.4070    0.4750   -1.3590 N   0  0  0  0  0  0  0  0  0  0  0  0
   -2.2880   -0.6040   -1.6300 C   0  0  0  0  0  0  0  0  0  0  0  0
   -1.6710   -1.6730   -2.2890 C   0  0  0  0  0  0  0  0  0  0  0  0
   -2.4510   -2.8520   -2.1920 C   0  0  0  0  0  0  0  0  0  0  0  0
   -2.0260   -3.9850   -2.9810 C   0  0  0  0  0  0  0  0  0  0  0  0
   -3.0190   -4.9970   -2.9660 C   0  0  0  0  0  0  0  0  0  0  0  0
   -2.8490   -6.1600   -3.7160 C   0  0  2  0  0  0  0  0  0  0  0  0
   -4.1480   -6.9270   -3.7580 C   0  0  0  0  0  0  0  0  0  0  0  0
   -1.7830   -7.0670   -3.1310 C   0  0  0  0  0  0  0  0  0  0  0  0
   -2.4580   -5.9240   -5.1220 C   0  0  0  0  0  0  0  0  0  0  0  0
   -1.8440    1.2070   -0.1970 C   0  0  0  0  0  0  0  0  0  0  0  0
   -0.8840    2.0350    0.5280 C   0  0  0  0  0  0  0  0  0  0  0  0
    0.4360    1.7870    0.4950 C   0  0  0  0  0  0  0  0  0  0  0  0
    1.3420    2.5010    1.2350 C   0  0  0  0  0  0  0  0  0  0  0  0
    0.9210    3.4950    2.0340 C   0  0  0  0  0  0  0  0  0  0  0  0
   -0.4580    3.7730    2.0590 C   0  0  0  0  0  0  0  0  0  0  0  0
   -0.9030    4.8110    2.9100 C   0  0  0  0  0  0  0  0  0  0  0  0
   -2.2540    5.1210    2.9730 C   0  0  0  0  0  0  0  0  0  0  0  0
   -3.1240    4.4060    2.1970 C   0  0  0  0  0  0  0  0  0  0  0  0
   -2.6950    3.3910    1.3840 C   0  0  0  0  0  0  0  0  0  0  0  0
   -1.3660    3.0530    1.3110 C   0  0  0  0  0  0  0  0  0  0  0  0
  1  2  1  0
  2  3  1  0
  3  4  1  0
  4  5  2  3
  5  6  1  0
  6  7  3  0
  7  8  1  0
  8  9  1  6
  8 10  1  0
  8 11  1  0
  2 12  1  0
 12 13  1  0
 13 14  2  0
 14 15  1  0
 15 16  2  0
 16 17  1  0
 17 18  2  0
 18 19  1  0
 19 20  2  0
 20 21  1  0
 21 22  2  0
 13 22  1  0
 17 22  1  0
M  END
$$$$

     RDKit          3D

 25 27  0  0  0  0  0  0  0  0999 V2000
   -4.7000    4.9770    4.6220 C   0  0  0  0  0  0  0  0  0  0  0  0
   -5.0410    3.6870    4.0340 C   0  0  0  0  0  0  0  0  0  0  0  0
   -4.0140    3.1770    3.2350 O   0  0  0  0  0  0  0  0  0  0  0  0
   -4.2050    2.1460    2.3820 C   0  0  0  0  0  0  0  0  0  0  0  0
   -5.2910    1.5830    2.2980 O   0  0  0  0  0  0  0  0  0  0  0  0
   -3.0480    1.7380    1.5750 C   0  0  0  0  0  0  0  0  0  0  0  0
   -3.1640    0.6820    0.7060 C   0  0  0  0  0  0  0  0  0  0  0  0
   -2.0700    0.2820   -0.0160 C   0  0  0  0  0  0  0  0  0  0  0  0
   -0.8640    0.9650    0.2060 C   0  0  0  0  0  0  0  0  0  0  0  0
    0.3670    0.5120   -0.4980 C   0  0  0  0  0  0  0  0  0  0  0  0
    0.6530    0.5690   -1.7240 C   0  0  0  0  0  0  0  0  0  0  0  0
    1.8800    0.1410   -2.4050 C   0  0  0  0  0  0  0  0  0  0  0  0
    2.5170    0.9820   -3.3030 C   0  0  0  0  0  0  0  0  0  0  0  0
    3.6230    0.5990   -3.9880 C   0  0  0  0  0  0  0  0  0  0  0  0
    4.1390   -0.7030   -3.7560 C   0  0  0  0  0  0  0  0  0  0  0  0
    3.5120   -1.5800   -2.8190 C   0  0  0  0  0  0  0  0  0  0  0  0
    2.3770   -1.0990   -2.2040 C   0  0  0  0  0  0  0  0  0  0  0  0
    3.9520   -2.9870   -2.4720 C   0  0  1  0  0  0  0  0  0  0  0  0
    4.2660   -3.1080   -0.9890 C   0  0  0  0  0  0  0  0  0  0  0  0
    2.9070   -4.0340   -2.8460 C   0  0  0  0  0  0  0  0  0  0  0  0
    5.1980   -3.5250   -3.1330 C   0  0  0  0  0  0  0  0  0  0  0  0
    5.9250   -2.9620   -4.1320 C   0  0  0  0  0  0  0  0  0  0  0  0
    5.6360   -1.2000   -4.7210 S   0  0  0  0  0  0  0  0  0  0  0  0
   -0.7760    1.9770    1.0510 N   0  0  0  0  0  0  0  0  0  0  0  0
   -1.8250    2.3770    1.7490 C   0  0  0  0  0  0  0  0  0  0  0  0
  1  2  1  0
  2  3  1  0
  3  4  1  0
  4  5  2  0
  4  6  1  0
  6  7  2  0
  7  8  1  0
  8  9  2  0
  9 10  1  0
 10 11  3  0
 11 12  1  0
 12 13  2  0
 13 14  1  0
 14 15  2  0
 15 16  1  0
 16 17  2  0
 16 18  1  0
 18 19  1  1
 18 20  1  0
 18 21  1  0
 21 22  1  0
 22 23  1  0
  9 24  1  0
 24 25  2  0
  6 25  1  0
 12 17  1  0
 15 23  1  0
M  END
$$$$

     RDKit          3D

 26 27  0  0  0  0  0  0  0  0999 V2000
   -3.8090   -6.2530   -0.8300 C   0  0  0  0  0  0  0  0  0  0  0  0
   -2.6130   -5.7900   -0.3130 C   0  0  0  0  0  0  0  0  0  0  0  0
   -1.5620   -5.3410   -1.2490 N   0  0  0  0  0  0  0  0  0  0  0  0
   -0.6170   -6.3090   -1.7090 C   0  0  0  0  0  0  0  0  0  0  0  0
   -1.0480   -7.1070   -2.6870 C   0  0  0  0  0  0  0  0  0  0  0  0
   -0.7980   -4.3040   -0.6680 C   0  0  0  0  0  0  0  0  0  0  0  0
   -1.5260   -3.1600   -0.2000 C   0  0  0  0  0  0  0  0  0  0  0  0
   -0.6940   -2.1740    0.4230 C   0  0  0  0  0  0  0  0  0  0  0  0
   -1.3900   -0.9650    0.8390 C   0  0  0  0  0  0  0  0  0  0  0  0
   -1.2430    0.0090   -0.1520 O   0  0  0  0  0  0  0  0  0  0  0  0
   -0.9270    1.2220    0.1630 C   0  0  0  0  0  0  0  0  0  0  0  0
   -1.0440    1.5630    1.3010 O   0  0  0  0  0  0  0  0  0  0  0  0
   -0.5780    2.1230   -0.9600 C   0  0  1  0  0  0  0  0  0  0  0  0
   -0.0800    1.2150   -1.9740 O   0  0  0  0  0  0  0  0  0  0  0  0
   -1.8080    2.8130   -1.4850 C   0  0  0  0  0  0  0  0  0  0  0  0
   -2.5680    3.6800   -0.7120 C   0  0  0  0  0  0  0  0  0  0  0  0
   -3.6850    4.3540   -1.2420 C   0  0  0  0  0  0  0  0  0  0  0  0
   -4.0690    4.1490   -2.5250 C   0  0  0  0  0  0  0  0  0  0  0  0
   -3.3390    3.2670   -3.2910 C   0  0  0  0  0  0  0  0  0  0  0  0
   -2.2250    2.6020   -2.7590 C   0  0  0  0  0  0  0  0  0  0  0  0
    0.5180    3.0990   -0.6340 C   0  0  0  0  0  0  0  0  0  0  0  0
    0.4850    3.8960    0.4540 C   0  0  0  0  0  0  0  0  0  0  0  0
    1.5090    4.8340    0.6770 C   0  0  0  0  0  0  0  0  0  0  0  0
    2.5590    4.9360   -0.1650 C   0  0  0  0  0  0  0  0  0  0  0  0
    2.5900    4.0960   -1.2490 C   0  0  0  0  0  0  0  0  0  0  0  0
    1.5830    3.1840   -1.4720 C   0  0  0  0  0  0  0  0  0  0  0  0
  1  2  1  0
  2  3  1  0
  3  4  1  0
  4  5  1  0
  3  6  1  0
  6  7  1  0
  7  8  3  0
  8  9  1  0
  9 10  1  0
 10 11  1  0
 11 12  2  0
 11 13  1  0
 13 14  1  6
 13 15  1  0
 15 16  2  0
 16 17  1  0
 17 18  2  0
 18 19  1  0
 19 20  2  0
 13 21  1  0
 21 22  1  0
 22 23  1  0
 23 24  1  0
 24 25  1  0
 25 26  1  0
 15 20  1  0
 21 26  1  0
M  END
$$$$

     RDKit          3D

 23 24  0  0  0  0  0  0  0  0999 V2000
   -7.1500    2.8710    1.2450 N   0  0  0  0  0  0  0  0  0  0  0  0
   -6.0480    3.0930    0.7690 C   0  0  0  0  0  0  0  0  0  0  0  0
   -5.8400    3.9600    0.0210 O   0  0  0  0  0  0  0  0  0  0  0  0
   -5.0180    2.2600    1.1540 N   0  0  0  0  0  0  0  0  0  0  0  0
   -5.1220    1.5620    2.1950 O   0  0  0  0  0  0  0  0  0  0  0  0
   -3.8760    2.2040    0.3410 C   0  0  0  0  0  0  0  0  0  0  0  0
   -2.8180    1.4640    0.8980 C   0  0  0  0  0  0  0  0  0  0  0  0
   -1.7080    1.1220   -0.0330 C   0  0  0  0  0  0  0  0  0  0  0  0
   -0.6650    0.3960    0.5560 C   0  0  0  0  0  0  0  0  0  0  0  0
    0.5270    0.2170   -0.2880 C   0  0  2  0  0  0  0  0  0  0  0  0
    0.5970   -0.2980   -1.5600 C   0  0  0  0  0  0  0  0  0  0  0  0
    1.8990   -0.7670   -1.7520 C   0  0  0  0  0  0  0  0  0  0  0  0
    2.2810   -1.1990   -0.5180 C   0  0  1  0  0  0  0  0  0  0  0  0
    3.7180   -1.3830   -0.0820 C   0  0  0  0  0  0  0  0  0  0  0  0
    4.4550   -1.9270   -1.0750 O   0  0  0  0  0  0  0  0  0  0  0  0
    5.6160   -2.5410   -0.8250 C   0  0  0  0  0  0  0  0  0  0  0  0
    5.9450   -3.0250    0.4420 C   0  0  0  0  0  0  0  0  0  0  0  0
    7.1570   -3.6240    0.6460 C   0  0  0  0  0  0  0  0  0  0  0  0
    8.0680   -3.7520   -0.3920 C   0  0  0  0  0  0  0  0  0  0  0  0
    9.2150   -4.3120   -0.1890 F   0  0  0  0  0  0  0  0  0  0  0  0
    7.7420   -3.2680   -1.6500 C   0  0  0  0  0  0  0  0  0  0  0  0
    6.5210   -2.6890   -1.8340 C   0  0  0  0  0  0  0  0  0  0  0  0
    1.5320   -0.4510    0.4050 O   0  0  0  0  0  0  0  0  0  0  0  0
  1  2  1  0
  2  3  2  0
  2  4  1  0
  4  5  1  0
  4  6  1  0
  6  7  1  0
  7  8  1  0
  8  9  3  0
 10  9  1  1
 10 11  1  0
 11 12  1  0
 12 13  1  0
 13 14  1  1
 14 15  1  0
 15 16  1  0
 16 17  2  0
 17 18  1  0
 18 19  2  0
 19 20  1  0
 19 21  1  0
 21 22  2  0
 13 23  1  0
 10 23  1  0
 16 22  1  0
M  END
$$$$

     RDKit          3D

 39 43  0  0  0  0  0  0  0  0999 V2000
   -0.7800    2.2040   -3.6600 C   0  0  0  0  0  0  0  0  0  0  0  0
    0.1830    1.5140   -2.7500 C   0  0  0  0  0  0  0  0  0  0  0  0
    1.3190    2.1110   -2.3300 C   0  0  0  0  0  0  0  0  0  0  0  0
    2.2370    1.4280   -1.4960 C   0  0  0  0  0  0  0  0  0  0  0  0
    2.0130    0.1420   -1.1240 C   0  0  0  0  0  0  0  0  0  0  0  0
    3.0180   -0.6340   -0.3020 C   0  0  0  0  0  0  0  0  0  0  0  0
    3.2310   -1.7800   -0.5230 O   0  0  0  0  0  0  0  0  0  0  0  0
    3.6140    0.0030    0.6810 N   0  0  0  0  0  0  0  0  0  0  0  0
    4.5240   -0.5890    1.5920 C   0  0  0  0  0  0  0  0  0  0  0  0
    4.2530   -0.6190    2.9370 C   0  0  0  0  0  0  0  0  0  0  0  0
    5.1280   -1.1490    3.8120 C   0  0  0  0  0  0  0  0  0  0  0  0
    6.3610   -1.6930    3.3710 C   0  0  0  0  0  0  0  0  0  0  0  0
    7.2770   -2.2810    4.3550 C   0  0  0  0  0  0  0  0  0  0  0  0
    7.1860   -1.7850    5.7080 N   0  0  0  0  0  0  0  0  0  0  0  0
    7.6590   -0.4280    5.9120 C   0  0  0  0  0  0  0  0  0  0  0  0
    7.4650    0.0250    7.3240 C   0  0  0  0  0  0  0  0  0  0  0  0
    8.0260   -0.9500    8.2720 N   0  0  0  0  0  0  0  0  0  0  0  0
    7.8270   -0.5370    9.5850 C   0  0  0  0  0  0  0  0  0  0  0  0
    7.5440   -2.3030    8.0630 C   0  0  0  0  0  0  0  0  0  0  0  0
    7.8040   -2.7260    6.6580 C   0  0  0  0  0  0  0  0  0  0  0  0
    6.6140   -1.6750    2.0430 C   0  0  0  0  0  0  0  0  0  0  0  0
    7.8700   -2.2260    1.4460 C   0  0  1  0  0  0  0  0  0  0  0  0
    7.8940   -3.5790    1.5320 F   0  0  0  0  0  0  0  0  0  0  0  0
    7.9710   -1.9550    0.1440 F   0  0  0  0  0  0  0  0  0  0  0  0
    8.9640   -1.7110    1.9950 F   0  0  0  0  0  0  0  0  0  0  0  0
    5.7220   -1.1460    1.1420 C   0  0  0  0  0  0  0  0  0  0  0  0
    0.8610   -0.4850   -1.5880 C   0  0  0  0  0  0  0  0  0  0  0  0
   -0.0250    0.1740   -2.3560 C   0  0  0  0  0  0  0  0  0  0  0  0
   -1.2510   -0.5970   -2.7690 C   0  0  0  0  0  0  0  0  0  0  0  0
   -2.3760   -0.5640   -1.9480 C   0  0  0  0  0  0  0  0  0  0  0  0
   -3.7660   -0.9680   -2.2540 C   0  0  0  0  0  0  0  0  0  0  0  0
   -4.6630   -1.5130   -1.4990 N   0  0  0  0  0  0  0  0  0  0  0  0
   -5.7890   -1.6010   -2.1640 N   0  0  0  0  0  0  0  0  0  0  0  0
   -5.6660   -1.0980   -3.3420 C   0  0  0  0  0  0  0  0  0  0  0  0
   -6.5290   -0.9230   -4.4530 C   0  0  0  0  0  0  0  0  0  0  0  0
   -6.0740   -0.3290   -5.6400 C   0  0  0  0  0  0  0  0  0  0  0  0
   -4.7330    0.1040   -5.7210 C   0  0  0  0  0  0  0  0  0  0  0  0
   -3.9170   -0.0480   -4.6790 C   0  0  0  0  0  0  0  0  0  0  0  0
   -4.4000   -0.6700   -3.4680 N   0  0  0  0  0  0  0  0  0  0  0  0
  1  2  1  0
  2  3  2  0
  3  4  1  0
  4  5  2  0
  5  6  1  0
  6  7  2  0
  6  8  1  0
  8  9  1  0
  9 10  2  0
 10 11  1  0
 11 12  2  0
 12 13  1  0
 13 14  1  0
 14 15  1  0
 15 16  1  0
 16 17  1  0
 17 18  1  0
 17 19  1  0
 19 20  1  0
 12 21  1  0
 21 22  1  0
 22 23  1  6
 22 24  1  0
 22 25  1  0
 21 26  2  0
  5 27  1  0
 27 28  2  0
 28 29  1  0
 29 30  3  0
 30 31  1  0
 31 32  2  0
 32 33  1  0
 33 34  2  0
 34 35  1  0
 35 36  2  0
 36 37  1  0
 37 38  2  0
 38 39  1  0
  2 28  1  0
 31 39  1  0
  9 26  1  0
 34 39  1  0
 14 20  1  0
M  END
$$$$

     RDKit          3D

 12 11  0  0  0  0  0  0  0  0999 V2000
   -4.7270    1.4620    2.0280 C   0  0  0  0  0  0  0  0  0  0  0  0
   -4.4800    1.0940    0.7100 C   0  0  0  0  0  0  0  0  0  0  0  0
   -3.2240    0.7440    0.3200 C   0  0  0  0  0  0  0  0  0  0  0  0
   -3.0200    0.3590   -1.0060 C   0  0  0  0  0  0  0  0  0  0  0  0
   -1.7630   -0.1650   -1.2800 N   0  0  0  0  0  0  0  0  0  0  0  0
   -1.5660   -1.1570   -2.1590 C   0  0  0  0  0  0  0  0  0  0  0  0
   -2.4780   -1.6230   -2.6390 O   0  0  0  0  0  0  0  0  0  0  0  0
   -0.2790   -1.4980   -2.3980 O   0  0  0  0  0  0  0  0  0  0  0  0
    0.0160   -2.4720   -3.2560 C   0  0  0  0  0  0  0  0  0  0  0  0
    1.4440   -2.8390   -3.4100 C   0  0  0  0  0  0  0  0  0  0  0  0
    1.8060   -3.9280   -4.2460 C   0  0  0  0  0  0  0  0  0  0  0  0
    3.6340   -4.5540   -4.4270 I   0  0  0  0  0  0  0  0  0  0  0  0
  1  2  1  0
  2  3  1  0
  3  4  1  0
  4  5  1  0
  5  6  1  0
  6  7  2  0
  6  8  1  0
  8  9  1  0
  9 10  1  0
 10 11  3  0
 11 12  1  0
M  END
$$$$

     RDKit          3D

  6  5  0  0  0  0  0  0  0  0999 V2000
   -0.2310   -2.4070    0.6970 C   0  0  0  0  0  0  0  0  0  0  0  0
    1.0240   -2.0090    0.7460 N   0  0  0  0  0  0  0  0  0  0  0  0
    1.3010   -0.6510    1.0840 C   0  0  0  0  0  0  0  0  0  0  0  0
    2.7040   -0.2800    1.0760 C   0  0  0  0  0  0  0  0  0  0  0  0
    3.0710    1.0680    1.4250 C   0  0  0  0  0  0  0  0  0  0  0  0
    4.4130    1.4420    1.4060 C   0  0  0  0  0  0  0  0  0  0  0  0
  1  2  3  0
  2  3  1  0
  3  4  1  0
  4  5  1  0
  5  6  1  0
M  CHG  2   1  -1   2   1
M  END
$$$$

     RDKit          3D

 24 26  0  0  0  0  0  0  0  0999 V2000
   -0.6590   -5.8800   -3.4890 C   0  0  0  0  0  0  0  0  0  0  0  0
   -0.8220   -4.4440   -3.7320 N   0  0  0  0  0  0  0  0  0  0  0  0
   -1.2610   -4.1020   -5.1020 C   0  0  0  0  0  0  0  0  0  0  0  0
   -1.5890   -3.8200   -2.6940 C   0  0  0  0  0  0  0  0  0  0  0  0
   -0.9220   -2.6120   -2.0350 C   0  0  0  0  0  0  0  0  0  0  0  0
   -1.6730   -2.1730   -0.8610 C   0  0  0  0  0  0  0  0  0  0  0  0
   -1.1000   -1.0040    0.0360 C   0  0  1  0  0  0  0  0  0  0  0  0
   -1.3420   -1.3770    1.4650 C   0  0  0  0  0  0  0  0  0  0  0  0
   -1.9300   -0.5100    2.3260 C   0  0  0  0  0  0  0  0  0  0  0  0
   -2.1380   -0.8500    3.6560 C   0  0  0  0  0  0  0  0  0  0  0  0
   -1.7080   -2.0550    4.1190 C   0  0  0  0  0  0  0  0  0  0  0  0
   -1.8960   -2.3700    5.3500 F   0  0  0  0  0  0  0  0  0  0  0  0
   -1.0870   -2.9300    3.2750 C   0  0  0  0  0  0  0  0  0  0  0  0
   -0.8770   -2.6100    1.9350 C   0  0  0  0  0  0  0  0  0  0  0  0
    0.3480   -0.7680   -0.1240 O   0  0  0  0  0  0  0  0  0  0  0  0
    0.5730    0.5460   -0.5110 C   0  0  0  0  0  0  0  0  0  0  0  0
   -0.7560    1.1960   -0.6970 C   0  0  0  0  0  0  0  0  0  0  0  0
   -1.0860    2.4890   -1.1530 C   0  0  0  0  0  0  0  0  0  0  0  0
   -2.4580    2.8230   -1.3310 C   0  0  0  0  0  0  0  0  0  0  0  0
   -2.8200    4.1200   -1.7900 C   0  0  0  0  0  0  0  0  0  0  0  0
   -3.1520    5.1740   -2.1280 N   0  0  0  0  0  0  0  0  0  0  0  0
   -3.4370    1.8790   -1.0740 C   0  0  0  0  0  0  0  0  0  0  0  0
   -3.0910    0.5560   -0.5870 C   0  0  0  0  0  0  0  0  0  0  0  0
   -1.7090    0.2670   -0.4200 C   0  0  0  0  0  0  0  0  0  0  0  0
  1  2  1  0
  2  3  1  0
  2  4  1  0
  4  5  1  0
  5  6  1  0
  7  6  1  6
  7  8  1  0
  8  9  2  0
  9 10  1  0
 10 11  2  0
 11 12  1  0
 11 13  1  0
 13 14  2  0
  7 15  1  0
 15 16  1  0
 16 17  1  0
 17 18  2  0
 18 19  1  0
 19 20  1  0
 20 21  3  0
 19 22  2  0
 22 23  1  0
 23 24  2  0
  7 24  1  0
  8 14  1  0
 17 24  1  0
M  END
$$$$

     RDKit          3D

 17 17  0  0  0  0  0  0  0  0999 V2000
   -1.5420    1.0630    4.3420 C   0  0  0  0  0  0  0  0  0  0  0  0
   -1.4220    0.8250    3.0320 N   0  0  0  0  0  0  0  0  0  0  0  0
   -1.8820    0.0080    2.2500 C   0  0  0  0  0  0  0  0  0  0  0  0
   -2.7810   -0.9190    2.6580 N   0  0  0  0  0  0  0  0  0  0  0  0
   -3.8450   -1.5700    2.2750 C   0  0  0  0  0  0  0  0  0  0  0  0
   -4.6130   -2.3080    2.3430 N   0  0  0  0  0  0  0  0  0  0  0  0
   -1.4480    0.0280    1.0140 N   0  0  0  0  0  0  0  0  0  0  0  0
   -0.9430    0.8870    0.2870 C   0  0  0  0  0  0  0  0  0  0  0  0
   -0.5960    0.3840   -1.0230 C   0  0  0  0  0  0  0  0  0  0  0  0
    0.6470    1.2160   -1.6190 S   0  0  0  0  0  0  0  0  0  0  0  0
    1.9970    0.3470   -1.5180 C   0  0  0  0  0  0  0  0  0  0  0  0
    3.1900    0.9770   -1.7110 C   0  0  0  0  0  0  0  0  0  0  0  0
    3.5540    1.9940   -1.0050 N   0  0  0  0  0  0  0  0  0  0  0  0
    4.6160    2.3780   -1.4630 C   0  0  0  0  0  0  0  0  0  0  0  0
    4.9700    1.6770   -2.4920 N   0  0  0  0  0  0  0  0  0  0  0  0
    4.1070    0.7980   -2.7080 C   0  0  0  0  0  0  0  0  0  0  0  0
    4.0850   -0.2200   -3.6920 C   0  0  0  0  0  0  0  0  0  0  0  0
  1  2  1  0
  2  3  2  3
  3  4  1  0
  4  5  1  0
  5  6  3  0
  3  7  1  0
  7  8  1  0
  8  9  1  0
  9 10  1  0
 10 11  1  0
 11 12  1  0
 12 13  1  0
 13 14  2  0
 14 15  1  0
 15 16  1  0
 16 17  1  0
 12 16  2  0
M  END
$$$$

     RDKit          3D

 30 32  0  0  0  0  0  0  0  0999 V2000
   -4.4570    1.6350   -0.0360 C   0  0  0  0  0  0  0  0  0  0  0  0
   -3.3240    1.2870    0.5150 O   0  0  0  0  0  0  0  0  0  0  0  0
   -2.3680    2.1540    0.7630 C   0  0  1  0  0  0  0  0  0  0  0  0
   -2.9130    3.3840    0.8860 N   0  0  0  0  0  0  0  0  0  0  0  0
   -2.4720    4.6150    0.9020 C   0  0  0  0  0  0  0  0  0  0  0  0
   -1.4390    4.9270    0.4400 O   0  0  0  0  0  0  0  0  0  0  0  0
   -3.3230    5.6790    1.4390 C   0  0  0  0  0  0  0  0  0  0  0  0
   -3.6760    6.9200    0.3250 S   0  0  0  0  0  0  0  0  0  0  0  0
   -5.2290    7.3190    0.3850 C   0  0  0  0  0  0  0  0  0  0  0  0
   -5.6710    8.5120   -0.1900 C   0  0  0  0  0  0  0  0  0  0  0  0
   -6.9190    8.8870    0.0080 N   0  0  0  0  0  0  0  0  0  0  0  0
   -1.4880    1.9270    1.9550 C   0  0  0  0  0  0  0  0  0  0  0  0
   -1.6830    1.9560    3.0660 O   0  0  0  0  0  0  0  0  0  0  0  0
   -0.3820    1.5640    1.1990 N   0  0  0  0  0  0  0  0  0  0  0  0
    0.8460    1.3830    1.4130 C   0  0  0  0  0  0  0  0  0  0  0  0
    1.7070    2.2230    2.2860 C   0  0  0  0  0  0  0  0  0  0  0  0
    2.3570    1.8320    3.2590 O   0  0  0  0  0  0  0  0  0  0  0  0
    1.7400    3.4090    2.0710 O   0  0  0  0  0  0  0  0  0  0  0  0
    1.6930    0.8290    0.3330 C   0  0  0  0  0  0  0  0  0  0  0  0
    2.9850    0.4040    0.6400 C   0  0  0  0  0  0  0  0  0  0  0  0
    3.9080   -0.1830   -0.6720 S   0  0  0  0  0  0  0  0  0  0  0  0
    3.4870   -1.7820   -0.9240 C   0  0  0  0  0  0  0  0  0  0  0  0
    2.3170   -2.3350   -0.8490 N   0  0  0  0  0  0  0  0  0  0  0  0
    2.3970   -3.5170   -1.0820 N   0  0  0  0  0  0  0  0  0  0  0  0
    3.5610   -3.8720   -1.2790 N   0  0  0  0  0  0  0  0  0  0  0  0
    4.2620   -2.8210   -1.1690 N   0  0  0  0  0  0  0  0  0  0  0  0
    5.6960   -2.7720   -1.2910 C   0  0  0  0  0  0  0  0  0  0  0  0
    1.3460    1.3210   -1.0250 C   0  0  0  0  0  0  0  0  0  0  0  0
   -0.2910    2.1340   -1.3480 S   0  0  0  0  0  0  0  0  0  0  0  0
   -1.1350    1.4390   -0.0350 C   0  0  2  0  0  0  0  0  0  0  0  0
  1  2  1  0
  2  3  1  0
  3  4  1  6
  4  5  1  0
  5  6  2  0
  5  7  1  0
  7  8  1  0
  8  9  1  0
  9 10  1  0
 10 11  3  0
  3 12  1  0
 12 13  2  0
 12 14  1  0
 14 15  1  0
 15 16  1  0
 16 17  2  0
 16 18  1  0
 15 19  2  0
 19 20  1  0
 20 21  1  0
 21 22  1  0
 22 23  2  0
 23 24  1  0
 24 25  2  0
 25 26  1  0
 26 27  1  0
 19 28  1  0
 28 29  1  0
 30 29  1  6
  3 30  1  0
 14 30  1  0
 22 26  1  0
M  END
$$$$

     RDKit          3D

 23 26  0  0  0  0  0  0  0  0999 V2000
    0.2460    0.7720    2.1180 O   0  0  0  0  0  0  0  0  0  0  0  0
   -0.4370    0.2920    1.3110 C   0  0  0  0  0  0  0  0  0  0  0  0
   -1.8610    0.3080    1.5470 C   0  0  1  0  0  0  0  0  0  0  0  0
   -2.4750   -0.6660    2.3610 C   0  0  0  0  0  0  0  0  0  0  0  0
   -3.8210   -0.6450    2.6170 C   0  0  0  0  0  0  0  0  0  0  0  0
   -4.6260    0.3880    2.1240 C   0  0  0  0  0  0  0  0  0  0  0  0
   -4.0300    1.3630    1.3400 C   0  0  0  0  0  0  0  0  0  0  0  0
   -2.6870    1.3260    1.0790 C   0  0  0  0  0  0  0  0  0  0  0  0
    0.0810   -0.2630    0.1540 N   0  0  0  0  0  0  0  0  0  0  0  0
   -0.7320   -0.8890   -0.9050 C   0  0  0  0  0  0  0  0  0  0  0  0
   -0.2230   -0.5540   -2.3400 C   0  0  0  0  0  0  0  0  0  0  0  0
   -0.8740   -0.9060   -3.3170 O   0  0  0  0  0  0  0  0  0  0  0  0
    1.0970   -0.0050   -2.4860 N   0  0  0  0  0  0  0  0  0  0  0  0
    1.6520    0.2190   -3.8480 C   0  0  0  0  0  0  0  0  0  0  0  0
    3.0680   -0.0430   -3.9560 C   0  0  0  0  0  0  0  0  0  0  0  0
    3.8760    0.4110   -2.7970 C   0  0  0  0  0  0  0  0  0  0  0  0
    5.2280    0.5660   -2.9840 C   0  0  0  0  0  0  0  0  0  0  0  0
    6.0300    0.9630   -1.9420 C   0  0  0  0  0  0  0  0  0  0  0  0
    5.4520    1.1480   -0.6760 C   0  0  0  0  0  0  0  0  0  0  0  0
    4.0850    1.0000   -0.4690 C   0  0  0  0  0  0  0  0  0  0  0  0
    3.2860    0.6090   -1.5160 C   0  0  0  0  0  0  0  0  0  0  0  0
    1.7840    0.6280   -1.3540 C   0  0  2  0  0  0  0  0  0  0  0  0
    1.4620   -0.2290   -0.0350 C   0  0  0  0  0  0  0  0  0  0  0  0
  1  2  2  0
  3  2  1  1
  3  4  1  0
  4  5  1  0
  5  6  1  0
  6  7  1  0
  7  8  1  0
  2  9  1  0
  9 10  1  0
 10 11  1  0
 11 12  2  0
 11 13  1  0
 13 14  1  0
 14 15  1  0
 15 16  1  0
 16 17  2  0
 17 18  1  0
 18 19  2  0
 19 20  1  0
 20 21  2  0
 21 22  1  0
 22 23  1  1
  3  8  1  0
  9 23  1  0
 13 22  1  0
 16 21  1  0
M  END
$$$$

     RDKit          3D

 22 23  0  0  0  0  0  0  0  0999 V2000
   -5.1250    4.0210   -0.7820 C   0  0  0  0  0  0  0  0  0  0  0  0
   -4.1720    3.3080   -1.6370 C   0  0  0  0  0  0  0  0  0  0  0  0
   -3.9750    1.8260   -1.5850 N   0  0  0  0  0  0  0  0  0  0  0  0
   -4.9720    0.9100   -1.9060 C   0  0  0  0  0  0  0  0  0  0  0  0
   -5.5240    0.9290   -3.1600 C   0  0  0  0  0  0  0  0  0  0  0  0
   -3.1290    1.3690   -0.5200 C   0  0  0  0  0  0  0  0  0  0  0  0
   -1.9660    2.1920   -0.0970 C   0  0  0  0  0  0  0  0  0  0  0  0
   -0.8550    1.3350    0.2090 O   0  0  0  0  0  0  0  0  0  0  0  0
    0.4180    1.6730    0.0350 C   0  0  0  0  0  0  0  0  0  0  0  0
    0.6900    2.7900   -0.3420 O   0  0  0  0  0  0  0  0  0  0  0  0
    1.5030    0.6270    0.3400 C   0  0  2  0  0  0  0  0  0  0  0  0
    2.4310    0.4420   -0.8550 C   0  0  2  0  0  0  0  0  0  0  0  0
    3.7130    0.9540   -0.8720 C   0  0  0  0  0  0  0  0  0  0  0  0
    4.5760    0.7950   -2.0030 C   0  0  0  0  0  0  0  0  0  0  0  0
    4.0710    0.1930   -3.1490 C   0  0  0  0  0  0  0  0  0  0  0  0
    2.7730   -0.2950   -3.1570 C   0  0  0  0  0  0  0  0  0  0  0  0
    1.9340   -0.1510   -2.0040 C   0  0  0  0  0  0  0  0  0  0  0  0
    0.9350   -0.7780    0.6570 C   0  0  0  0  0  0  0  0  0  0  0  0
    0.9130   -1.3380    1.9800 C   0  0  0  0  0  0  0  0  0  0  0  0
    1.7270   -0.7750    3.0840 C   0  0  0  0  0  0  0  0  0  0  0  0
    2.1830    0.6180    2.8810 C   0  0  0  0  0  0  0  0  0  0  0  0
    2.3230    1.1600    1.5540 C   0  0  0  0  0  0  0  0  0  0  0  0
  1  2  1  0
  2  3  1  0
  3  4  1  0
  4  5  1  0
  3  6  1  0
  6  7  1  0
  7  8  1  0
  8  9  1  0
  9 10  2  0
 11  9  1  6
 11 12  1  0
 12 13  1  6
 13 14  1  0
 14 15  1  0
 15 16  1  0
 16 17  1  0
 11 18  1  0
 18 19  1  0
 19 20  1  0
 20 21  1  0
 21 22  1  0
 11 22  1  0
 12 17  1  0
M  END
$$$$

     RDKit          3D

 11 11  0  0  0  0  0  0  0  0999 V2000
   -0.8330    3.8410    1.5970 C   0  0  0  0  0  0  0  0  0  0  0  0
    0.3150    3.2540    1.8230 N   0  0  0  0  0  0  0  0  0  0  0  0
    1.0540    2.2920    1.0490 C   0  0  1  0  0  0  0  0  0  0  0  0
    1.9920    1.6780    2.0110 C   0  0  0  0  0  0  0  0  0  0  0  0
    0.2560    1.4440    0.1540 C   0  0  0  0  0  0  0  0  0  0  0  0
    0.9280    0.3190   -0.5990 C   0  0  2  0  0  0  0  0  0  0  0  0
    1.1400    0.3880   -1.9710 C   0  0  0  0  0  0  0  0  0  0  0  0
    1.6710   -0.6630   -2.6980 C   0  0  0  0  0  0  0  0  0  0  0  0
    2.0290   -1.8380   -2.0200 C   0  0  0  0  0  0  0  0  0  0  0  0
    1.8180   -1.9240   -0.6420 C   0  0  0  0  0  0  0  0  0  0  0  0
    1.2840   -0.8340    0.0550 C   0  0  0  0  0  0  0  0  0  0  0  0
  1  2  1  0
  2  3  1  0
  3  4  1  1
  3  5  1  0
  6  5  1  6
  6  7  1  0
  7  8  1  0
  8  9  1  0
  9 10  1  0
 10 11  1  0
  6 11  1  0
M  END
$$$$

     RDKit          3D

 21 23  0  0  0  0  0  0  0  0999 V2000
   -5.2360    2.3790   -2.6680 N   0  0  0  0  0  0  0  0  0  0  0  0
   -4.8970    2.2880   -1.1290 S   0  0  1  0  0  0  0  0  0  0  0  0
   -5.0330    3.5750   -0.5550 O   0  0  0  0  0  0  0  0  0  0  0  0
   -5.9580    1.4070   -0.5550 O   0  0  0  0  0  0  0  0  0  0  0  0
   -3.3090    1.5820   -0.8720 C   0  0  0  0  0  0  0  0  0  0  0  0
   -2.4500    2.3340   -0.0870 C   0  0  0  0  0  0  0  0  0  0  0  0
   -1.1620    1.8040    0.1710 C   0  0  0  0  0  0  0  0  0  0  0  0
   -0.7830    0.6130   -0.3110 C   0  0  0  0  0  0  0  0  0  0  0  0
   -1.6600   -0.1420   -1.1290 C   0  0  0  0  0  0  0  0  0  0  0  0
   -2.9100    0.3470   -1.3980 C   0  0  0  0  0  0  0  0  0  0  0  0
   -4.0350   -0.5820   -2.3920 Cl  0  0  0  0  0  0  0  0  0  0  0  0
    0.5590    0.3340    0.1300 C   0  0  0  0  0  0  0  0  0  0  0  0
    0.9570    1.4470    0.9100 N   0  0  0  0  0  0  0  0  0  0  0  0
    2.1590    1.5590    1.5060 C   0  0  0  0  0  0  0  0  0  0  0  0
    2.3200    2.3210    2.6030 C   0  0  0  0  0  0  0  0  0  0  0  0
    3.5380    2.4380    3.2300 C   0  0  0  0  0  0  0  0  0  0  0  0
    4.6220    1.7610    2.7220 C   0  0  0  0  0  0  0  0  0  0  0  0
    4.4550    0.9670    1.5980 C   0  0  0  0  0  0  0  0  0  0  0  0
    3.2090    0.8570    1.0030 C   0  0  0  0  0  0  0  0  0  0  0  0
   -0.0970    2.3730    0.9540 C   0  0  0  0  0  0  0  0  0  0  0  0
   -0.1130    3.4370    1.5300 O   0  0  0  0  0  0  0  0  0  0  0  0
  2  1  1  6
  2  3  2  0
  2  4  2  0
  2  5  1  0
  5  6  2  0
  6  7  1  0
  7  8  2  0
  8  9  1  0
  9 10  2  0
 10 11  1  0
  8 12  1  0
 12 13  1  0
 13 14  1  0
 14 15  1  0
 15 16  1  0
 16 17  1  0
 17 18  1  0
 18 19  1  0
 13 20  1  0
 20 21  2  0
  5 10  1  0
 14 19  1  0
  7 20  1  0
M  END
$$$$

     RDKit          3D

 30 32  0  0  0  0  0  0  0  0999 V2000
    0.4490   -3.4430   -3.2390 O   0  0  0  0  0  0  0  0  0  0  0  0
   -0.0340   -3.2810   -4.3330 C   0  0  0  0  0  0  0  0  0  0  0  0
   -0.9910   -4.0210   -4.6210 O   0  0  0  0  0  0  0  0  0  0  0  0
    0.3590   -2.1970   -5.2870 C   0  0  2  0  0  0  0  0  0  0  0  0
    1.0900   -2.5850   -6.4220 C   0  0  0  0  0  0  0  0  0  0  0  0
    2.4340   -2.1830   -6.3150 C   0  0  1  0  0  0  0  0  0  0  0  0
    3.3170   -2.0090   -7.4420 C   0  0  0  0  0  0  0  0  0  0  0  0
    3.8240   -0.8510   -7.9320 C   0  0  0  0  0  0  0  0  0  0  0  0
    4.7400   -0.8390   -8.9320 C   0  0  0  0  0  0  0  0  0  0  0  0
    5.1640   -2.0070   -9.5140 C   0  0  0  0  0  0  0  0  0  0  0  0
    4.6270   -3.1830   -9.0600 C   0  0  0  0  0  0  0  0  0  0  0  0
    3.7190   -3.1670   -8.0750 C   0  0  0  0  0  0  0  0  0  0  0  0
    2.3990   -1.0410   -5.4150 C   0  0  0  0  0  0  0  0  0  0  0  0
    1.2400   -1.2460   -4.6160 N   0  0  0  0  0  0  0  0  0  0  0  0
    0.9250   -0.5250   -3.5620 C   0  0  0  0  0  0  0  0  0  0  0  0
   -0.0130   -0.7290   -2.8890 O   0  0  0  0  0  0  0  0  0  0  0  0
    1.7530    0.6660   -3.2790 C   0  0  0  0  0  0  0  0  0  0  0  0
    2.8880    0.6550   -2.0110 P   0  0  0  0  0  0  0  0  0  0  0  0
    3.7470   -0.5120   -2.1490 O   0  0  0  0  0  0  0  0  0  0  0  0
    3.6830    1.9120   -2.1230 O   0  0  0  0  0  0  0  0  0  0  0  0
    2.0810    0.5790   -0.5130 C   0  0  0  0  0  0  0  0  0  0  0  0
    2.4110    1.6580    0.3400 C   0  0  0  0  0  0  0  0  0  0  0  0
    1.7000    1.6090    1.6160 C   0  0  0  0  0  0  0  0  0  0  0  0
    1.8850    2.7780    2.3380 C   0  0  0  0  0  0  0  0  0  0  0  0
    1.3650    2.9120    3.6670 C   0  0  0  0  0  0  0  0  0  0  0  0
    1.7320    4.0120    4.4150 C   0  0  0  0  0  0  0  0  0  0  0  0
    1.2890    4.1990    5.6400 C   0  0  0  0  0  0  0  0  0  0  0  0
    0.4180    3.2320    6.2170 C   0  0  0  0  0  0  0  0  0  0  0  0
    0.0500    2.1260    5.4820 C   0  0  0  0  0  0  0  0  0  0  0  0
    0.5280    1.9820    4.2510 C   0  0  0  0  0  0  0  0  0  0  0  0
  1  2  2  0
  2  3  1  0
  4  2  1  1
  4  5  1  0
  5  6  1  0
  6  7  1  6
  7  8  1  0
  8  9  1  0
  9 10  1  0
 10 11  1  0
 11 12  1  0
  6 13  1  0
 13 14  1  0
 14 15  1  0
 15 16  2  0
 15 17  1  0
 17 18  1  0
 18 19  2  0
 18 20  1  0
 18 21  1  0
 21 22  1  0
 22 23  1  0
 23 24  1  0
 24 25  1  0
 25 26  2  0
 26 27  1  0
 27 28  2  0
 28 29  1  0
 29 30  2  0
  4 14  1  0
 25 30  1  0
  7 12  1  0
M  END
$$$$

     RDKit          3D

 31 34  0  0  0  0  0  0  0  0999 V2000
   -1.1180    4.9630   -3.1210 O   0  0  0  0  0  0  0  0  0  0  0  0
   -0.8940    4.3700   -2.0220 C   0  0  0  0  0  0  0  0  0  0  0  0
   -1.8560    3.6870   -1.4650 N   0  0  0  0  0  0  0  0  0  0  0  0
   -1.8300    3.0160   -0.3700 C   0  0  0  0  0  0  0  0  0  0  0  0
   -3.0510    2.4210    0.0090 N   0  0  0  0  0  0  0  0  0  0  0  0
   -3.1410    1.7050    1.2460 C   0  0  0  0  0  0  0  0  0  0  0  0
   -4.5760    1.4180    1.6830 C   0  0  0  0  0  0  0  0  0  0  0  0
   -5.3820    0.9180    0.6240 N   0  0  0  0  0  0  0  0  0  0  0  0
   -6.7340    0.6030    1.0630 C   0  0  0  0  0  0  0  0  0  0  0  0
   -7.0440   -0.8000    0.8080 C   0  0  0  0  0  0  0  0  0  0  0  0
   -6.7370   -1.7640    1.7570 C   0  0  0  0  0  0  0  0  0  0  0  0
   -7.0410   -3.0680    1.5510 C   0  0  0  0  0  0  0  0  0  0  0  0
   -7.6510   -3.4640    0.3230 C   0  0  0  0  0  0  0  0  0  0  0  0
   -7.9500   -2.4780   -0.6670 C   0  0  0  0  0  0  0  0  0  0  0  0
   -7.6320   -1.1850   -0.4120 C   0  0  0  0  0  0  0  0  0  0  0  0
   -5.3920    1.7490   -0.5570 C   0  0  0  0  0  0  0  0  0  0  0  0
   -3.9760    2.0360   -1.0430 C   0  0  0  0  0  0  0  0  0  0  0  0
   -0.4400    2.9450    0.5690 S   0  0  0  0  0  0  0  0  0  0  0  0
    0.7090    3.8360   -0.2680 C   0  0  0  0  0  0  0  0  0  0  0  0
    2.0710    3.9650    0.2680 C   0  0  0  0  0  0  0  0  0  0  0  0
    2.3680    3.3260    1.4500 N   0  0  0  0  0  0  0  0  0  0  0  0
    2.5600    3.9180    2.4700 O   0  0  0  0  0  0  0  0  0  0  0  0
    2.4930    2.1050    1.4930 O   0  0  0  0  0  0  0  0  0  0  0  0
    2.9810    4.6730   -0.4190 C   0  0  0  0  0  0  0  0  0  0  0  0
    2.6590    5.2930   -1.6080 C   0  0  0  0  0  0  0  0  0  0  0  0
    3.6720    6.0940   -2.3520 C   0  0  2  0  0  0  0  0  0  0  0  0
    3.7370    5.8630   -3.7070 F   0  0  0  0  0  0  0  0  0  0  0  0
    4.9420    5.9550   -1.9390 F   0  0  0  0  0  0  0  0  0  0  0  0
    3.4700    7.4470   -2.3120 F   0  0  0  0  0  0  0  0  0  0  0  0
    1.3940    5.1720   -2.0980 C   0  0  0  0  0  0  0  0  0  0  0  0
    0.3930    4.4450   -1.4300 C   0  0  0  0  0  0  0  0  0  0  0  0
  1  2  2  0
  2  3  1  0
  3  4  2  0
  4  5  1  0
  5  6  1  0
  6  7  1  0
  7  8  1  0
  8  9  1  0
  9 10  1  0
 10 11  1  0
 11 12  1  0
 12 13  1  0
 13 14  1  0
 14 15  1  0
  8 16  1  0
 16 17  1  0
  4 18  1  0
 18 19  1  0
 19 20  2  0
 20 21  1  0
 21 22  2  0
 21 23  1  0
 20 24  1  0
 24 25  2  0
 25 26  1  0
 26 27  1  6
 26 28  1  0
 26 29  1  0
 25 30  1  0
 30 31  2  0
  2 31  1  0
  5 17  1  0
 19 31  1  0
 10 15  1  0
M  CHG  2  21   1  23  -1
M  END
$$$$

     RDKit          3D

 28 30  0  0  0  0  0  0  0  0999 V2000
   -1.8700   -4.8970    1.7810 C   0  0  0  0  0  0  0  0  0  0  0  0
   -1.0880   -5.0380    0.6630 O   0  0  0  0  0  0  0  0  0  0  0  0
   -0.5560   -3.9910    0.0110 C   0  0  0  0  0  0  0  0  0  0  0  0
   -0.7760   -2.7160    0.3370 C   0  0  0  0  0  0  0  0  0  0  0  0
   -0.1710   -1.6270   -0.3770 C   0  0  0  0  0  0  0  0  0  0  0  0
   -0.4010   -0.3640   -0.0260 N   0  0  0  0  0  0  0  0  0  0  0  0
    0.1800    0.5860   -0.7050 C   0  0  0  0  0  0  0  0  0  0  0  0
   -0.0990    1.8910   -0.3370 N   0  0  0  0  0  0  0  0  0  0  0  0
   -1.3320    2.2580    0.2090 C   0  0  0  0  0  0  0  0  0  0  0  0
    0.8090    2.9560   -0.4140 C   0  0  0  0  0  0  0  0  0  0  0  0
    1.1610    3.4270    0.9960 C   0  0  0  0  0  0  0  0  0  0  0  0
    2.0690    4.5430    1.0600 C   0  0  0  0  0  0  0  0  0  0  0  0
    1.5110    5.5820    1.8560 N   0  0  0  0  0  0  0  0  0  0  0  0
    2.0950    6.7340    1.9430 C   0  0  0  0  0  0  0  0  0  0  0  0
    3.0380    7.0520    1.3790 O   0  0  0  0  0  0  0  0  0  0  0  0
    1.3660    7.8570    2.5250 C   0  0  2  0  0  0  0  0  0  0  0  0
    1.9110    8.9140    3.2180 C   0  0  0  0  0  0  0  0  0  0  0  0
    0.9130    9.4210    3.9950 C   0  0  0  0  0  0  0  0  0  0  0  0
   -0.0980    8.4610    4.0640 C   0  0  0  0  0  0  0  0  0  0  0  0
    0.2920    7.4400    3.3880 O   0  0  0  0  0  0  0  0  0  0  0  0
    0.9970    0.3980   -1.7210 N   0  0  0  0  0  0  0  0  0  0  0  0
    1.2540   -0.8530   -2.1360 C   0  0  0  0  0  0  0  0  0  0  0  0
    2.0580   -1.0530   -3.1480 N   0  0  0  0  0  0  0  0  0  0  0  0
    0.6670   -1.9310   -1.4570 C   0  0  0  0  0  0  0  0  0  0  0  0
    0.8680   -3.2830   -1.7810 C   0  0  0  0  0  0  0  0  0  0  0  0
    0.2640   -4.3040   -1.0530 C   0  0  0  0  0  0  0  0  0  0  0  0
    0.4680   -5.6120   -1.3600 O   0  0  0  0  0  0  0  0  0  0  0  0
    1.1640   -6.0750   -2.4470 C   0  0  0  0  0  0  0  0  0  0  0  0
  1  2  1  0
  2  3  1  0
  3  4  2  0
  4  5  1  0
  5  6  2  0
  6  7  1  0
  7  8  1  0
  8  9  1  0
  8 10  1  0
 10 11  1  0
 11 12  1  0
 12 13  1  0
 13 14  1  0
 14 15  2  0
 16 14  1  1
 16 17  1  0
 17 18  1  0
 18 19  1  0
 19 20  1  0
  7 21  2  0
 21 22  1  0
 22 23  1  0
 22 24  2  0
 24 25  1  0
 25 26  2  0
 26 27  1  0
 27 28  1  0
  3 26  1  0
  5 24  1  0
 16 20  1  0
M  END
$$$$

     RDKit          3D

 14 15  0  0  0  0  0  0  0  0999 V2000
   -2.5630    3.4290    0.1670 O   0  0  0  0  0  0  0  0  0  0  0  0
   -1.8140    2.4950    0.4180 C   0  0  0  0  0  0  0  0  0  0  0  0
   -2.0070    1.2830   -0.1590 N   0  0  0  0  0  0  0  0  0  0  0  0
   -1.1940    0.1950    0.1080 C   0  0  0  0  0  0  0  0  0  0  0  0
   -1.3730   -0.8700   -0.4470 O   0  0  0  0  0  0  0  0  0  0  0  0
   -0.1220    0.3480    0.9900 N   0  0  0  0  0  0  0  0  0  0  0  0
    0.7740   -0.7250    1.1170 C   0  0  2  0  0  0  0  0  0  0  0  0
    0.4510   -2.0140    1.5260 C   0  0  0  0  0  0  0  0  0  0  0  0
    1.6890   -2.5640    2.0580 C   0  0  0  0  0  0  0  0  0  0  0  0
    2.5460   -1.5190    2.2020 C   0  0  0  0  0  0  0  0  0  0  0  0
    1.9500   -0.3580    1.8530 O   0  0  0  0  0  0  0  0  0  0  0  0
    0.1230    1.5820    1.6380 C   0  0  0  0  0  0  0  0  0  0  0  0
   -0.7410    2.6800    1.3450 C   0  0  0  0  0  0  0  0  0  0  0  0
   -0.5570    3.8480    1.8870 F   0  0  0  0  0  0  0  0  0  0  0  0
  1  2  2  0
  2  3  1  0
  3  4  1  0
  4  5  2  0
  4  6  1  0
  7  6  1  1
  7  8  1  0
  8  9  1  0
  9 10  1  0
 10 11  1  0
  6 12  1  0
 12 13  2  0
 13 14  1  0
  2 13  1  0
  7 11  1  0
M  END
$$$$

     RDKit          3D

 19 21  0  0  0  0  0  0  0  0999 V2000
   -1.4720    0.9140    5.0840 C   0  0  0  0  0  0  0  0  0  0  0  0
   -0.7470    1.1620    3.7980 C   0  0  1  0  0  0  0  0  0  0  0  0
    0.5360    0.8450    3.9270 O   0  0  0  0  0  0  0  0  0  0  0  0
   -1.3470    0.5440    2.6840 C   0  0  1  0  0  0  0  0  0  0  0  0
   -2.3660    1.2590    1.8270 C   0  0  0  0  0  0  0  0  0  0  0  0
   -3.3010    1.8660    2.0440 O   0  0  0  0  0  0  0  0  0  0  0  0
   -1.7060    0.8420    0.7140 N   0  0  0  0  0  0  0  0  0  0  0  0
   -1.9750    0.4960   -0.5580 C   0  0  0  0  0  0  0  0  0  0  0  0
   -2.9470    1.1210   -1.3880 C   0  0  0  0  0  0  0  0  0  0  0  0
   -2.7350    2.2520   -1.8150 O   0  0  0  0  0  0  0  0  0  0  0  0
   -4.0760    0.6230   -1.5910 O   0  0  0  0  0  0  0  0  0  0  0  0
   -0.9280   -0.3020   -1.1470 C   0  0  0  0  0  0  0  0  0  0  0  0
   -1.0480   -1.0790   -2.3030 C   0  0  1  0  0  0  0  0  0  0  0  0
   -1.8770   -0.9510   -3.3660 C   0  0  0  0  0  0  0  0  0  0  0  0
   -1.3620   -1.6230   -4.4630 C   0  0  0  0  0  0  0  0  0  0  0  0
   -0.0960   -1.8610   -4.1250 C   0  0  0  0  0  0  0  0  0  0  0  0
    0.1840   -1.3430   -2.9520 O   0  0  0  0  0  0  0  0  0  0  0  0
    0.3080   -0.7630    0.1200 S   0  0  0  0  0  0  0  0  0  0  0  0
   -0.4430    0.5990    1.3200 C   0  0  2  0  0  0  0  0  0  0  0  0
  2  1  1  1
  2  3  1  0
  2  4  1  0
  4  5  1  6
  5  6  2  0
  5  7  1  0
  7  8  1  0
  8  9  1  0
  9 10  2  0
  9 11  1  0
  8 12  2  0
 13 12  1  6
 13 14  1  0
 14 15  1  0
 15 16  1  0
 16 17  1  0
 12 18  1  0
 19 18  1  6
  4 19  1  0
  7 19  1  0
 13 17  1  0
M  END
$$$$

     RDKit          3D

 12 13  0  0  0  0  0  0  0  0999 V2000
   -2.8940    2.6960   -0.1770 C   0  0  0  0  0  0  0  0  0  0  0  0
   -1.4900    3.1080   -0.2800 N   0  0  0  0  0  0  0  0  0  0  0  0
   -1.0870    4.4000    0.0190 C   0  0  0  0  0  0  0  0  0  0  0  0
    0.3200    4.4350   -0.1590 C   0  0  0  0  0  0  0  0  0  0  0  0
    0.7040    3.0930   -0.5250 C   0  0  0  0  0  0  0  0  0  0  0  0
   -0.4160    2.4290   -0.9890 C   0  0  1  0  0  0  0  0  0  0  0  0
   -0.5390    0.9170   -1.0210 C   0  0  0  0  0  0  0  0  0  0  0  0
    0.1620   -0.0110   -0.2290 C   0  0  0  0  0  0  0  0  0  0  0  0
    0.1090   -1.3790   -0.5110 C   0  0  0  0  0  0  0  0  0  0  0  0
   -0.6420   -1.8170   -1.6110 C   0  0  0  0  0  0  0  0  0  0  0  0
   -1.3070   -0.9030   -2.3970 N   0  0  0  0  0  0  0  0  0  0  0  0
   -1.2510    0.3980   -2.0930 C   0  0  0  0  0  0  0  0  0  0  0  0
  1  2  1  0
  2  3  1  0
  3  4  1  0
  4  5  1  0
  5  6  1  0
  6  7  1  1
  7  8  2  0
  8  9  1  0
  9 10  2  0
 10 11  1  0
 11 12  2  0
  2  6  1  0
  7 12  1  0
M  END
$$$$

     RDKit          3D

 23 24  0  0  0  0  0  0  0  0999 V2000
    0.0500   -7.0470    3.6960 C   0  0  0  0  0  0  0  0  0  0  0  0
    0.2880   -5.9650    2.9490 C   0  0  0  0  0  0  0  0  0  0  0  0
   -0.3400   -4.7250    3.2660 N   0  0  0  0  0  0  0  0  0  0  0  0
   -1.4850   -4.5160    4.0240 C   0  0  0  0  0  0  0  0  0  0  0  0
   -1.7510   -3.1240    3.9540 C   0  0  0  0  0  0  0  0  0  0  0  0
   -0.7500   -2.5100    3.2080 C   0  0  0  0  0  0  0  0  0  0  0  0
   -0.0050   -3.5440    2.5840 C   0  0  1  0  0  0  0  0  0  0  0  0
    1.4440   -3.3070    2.4540 C   0  0  0  0  0  0  0  0  0  0  0  0
    1.7000   -2.0250    1.8590 N   0  0  0  0  0  0  0  0  0  0  0  0
    1.8540   -1.7920    0.5710 C   0  0  0  0  0  0  0  0  0  0  0  0
    1.7810   -2.6790   -0.2490 O   0  0  0  0  0  0  0  0  0  0  0  0
    2.1720   -0.4150    0.1820 C   0  0  0  0  0  0  0  0  0  0  0  0
    3.0160   -0.1990   -0.9030 C   0  0  0  0  0  0  0  0  0  0  0  0
    3.3130    1.0570   -1.3260 C   0  0  0  0  0  0  0  0  0  0  0  0
    4.3580    1.2890   -2.7260 S   0  0  2  0  0  0  0  0  0  0  0  0
    5.8490    0.8560   -2.3880 N   0  0  0  0  0  0  0  0  0  0  0  0
    4.4040    2.7270   -3.0920 O   0  0  0  0  0  0  0  0  0  0  0  0
    3.9070    0.5130   -3.8710 O   0  0  0  0  0  0  0  0  0  0  0  0
    2.8030    2.1950   -0.6910 C   0  0  0  0  0  0  0  0  0  0  0  0
    1.9690    1.9900    0.4060 C   0  0  0  0  0  0  0  0  0  0  0  0
    1.6570    0.6820    0.8450 C   0  0  0  0  0  0  0  0  0  0  0  0
    0.7960    0.4490    1.9020 O   0  0  0  0  0  0  0  0  0  0  0  0
    0.1980    1.5530    2.5530 C   0  0  0  0  0  0  0  0  0  0  0  0
  1  2  1  0
  2  3  1  0
  3  4  1  0
  4  5  1  0
  5  6  1  0
  6  7  1  0
  7  8  1  1
  8  9  1  0
  9 10  1  0
 10 11  2  0
 10 12  1  0
 12 13  2  0
 13 14  1  0
 14 15  1  0
 15 16  1  1
 15 17  2  0
 15 18  2  0
 14 19  2  0
 19 20  1  0
 20 21  2  0
 21 22  1  0
 22 23  1  0
  3  7  1  0
 12 21  1  0
M  END
$$$$

     RDKit          3D

 14 14  0  0  0  0  0  0  0  0999 V2000
    2.4780   -1.9880   -2.3360 C   0  0  0  0  0  0  0  0  0  0  0  0
    2.5080   -1.8410   -0.8230 C   0  0  2  0  0  0  0  0  0  0  0  0
    3.8710   -2.1930   -0.3190 C   0  0  0  0  0  0  0  0  0  0  0  0
    4.5280   -1.1690    0.8910 S   0  0  0  0  0  0  0  0  0  0  0  0
    1.3970   -2.5920   -0.1460 C   0  0  0  0  0  0  0  0  0  0  0  0
    1.5610   -3.7290    0.0260 O   0  0  0  0  0  0  0  0  0  0  0  0
    0.2570   -1.9110    0.2270 N   0  0  0  0  0  0  0  0  0  0  0  0
    0.0800   -0.5080    0.0590 C   0  0  0  0  0  0  0  0  0  0  0  0
   -1.2440   -0.2330    0.6130 C   0  0  0  0  0  0  0  0  0  0  0  0
   -1.8250   -1.4260    0.9980 C   0  0  0  0  0  0  0  0  0  0  0  0
   -0.7740   -2.4440    1.0350 C   0  0  1  0  0  0  0  0  0  0  0  0
   -1.1890   -3.7870    0.7200 C   0  0  0  0  0  0  0  0  0  0  0  0
   -1.4360   -4.5470    1.6690 O   0  0  0  0  0  0  0  0  0  0  0  0
   -1.3240   -4.2250   -0.4450 O   0  0  0  0  0  0  0  0  0  0  0  0
  2  1  1  6
  2  3  1  0
  3  4  1  0
  2  5  1  0
  5  6  2  0
  5  7  1  0
  7  8  1  0
  8  9  1  0
  9 10  1  0
 10 11  1  0
 11 12  1  6
 12 13  2  0
 12 14  1  0
  7 11  1  0
M  END
$$$$

     RDKit          3D

 24 28  0  0  0  0  0  0  0  0999 V2000
    1.8920   -0.3770   -1.4520 O   0  0  0  0  0  0  0  0  0  0  0  0
    0.7060   -0.5330   -0.8330 C   0  0  0  0  0  0  0  0  0  0  0  0
    0.1510   -1.7700   -0.6930 C   0  0  0  0  0  0  0  0  0  0  0  0
   -1.1050   -1.8750   -0.0630 C   0  0  0  0  0  0  0  0  0  0  0  0
   -1.8980   -0.7400    0.4250 C   0  0  0  0  0  0  0  0  0  0  0  0
   -1.1710    0.6520    0.4220 C   0  0  0  0  0  0  0  0  0  0  0  0
    0.0180    0.6140   -0.3220 C   0  0  0  0  0  0  0  0  0  0  0  0
   -2.0140    1.7900    0.6510 C   0  0  2  0  0  0  0  0  0  0  0  0
   -0.9520    2.9140    1.0920 C   0  0  0  0  0  0  0  0  0  0  0  0
   -0.2490    2.6780    2.5120 C   0  0  0  0  0  0  0  0  0  0  0  0
   -1.1830    2.2840    3.5660 C   0  0  0  0  0  0  0  0  0  0  0  0
   -2.6510    2.1420    3.1860 C   0  0  0  0  0  0  0  0  0  0  0  0
   -2.8580    1.2410    1.9170 C   0  0  2  0  0  0  0  0  0  0  0  0
   -2.3690    0.2890    2.1720 O   0  0  0  0  0  0  0  0  0  0  0  0
   -4.2490    0.6880    1.4210 C   0  0  2  0  0  0  0  0  0  0  0  0
   -3.5620   -0.8260    0.8530 C   0  0  0  0  0  0  0  0  0  0  0  0
   -4.5200    0.7980    0.1770 N   0  0  0  0  0  0  0  0  0  0  0  0
   -5.7850   -0.0330   -0.1390 C   0  0  0  0  0  0  0  0  0  0  0  0
   -7.0840    0.6460   -0.1830 C   0  0  2  0  0  0  0  0  0  0  0  0
   -7.7590    1.3150    0.8260 C   0  0  0  0  0  0  0  0  0  0  0  0
   -9.1470    0.6840    0.5310 C   0  0  0  0  0  0  0  0  0  0  0  0
   -8.3090   -0.1990   -0.3090 C   0  0  0  0  0  0  0  0  0  0  0  0
   -3.8610    1.3350   -0.8920 C   0  0  0  0  0  0  0  0  0  0  0  0
   -2.8590    2.3410   -0.2120 C   0  0  0  0  0  0  0  0  0  0  0  0
  1  2  1  0
  2  3  2  0
  3  4  1  0
  4  5  2  0
  5  6  1  0
  6  7  2  0
  6  8  1  0
  8  9  1  1
  9 10  1  0
 10 11  1  0
 11 12  1  0
 12 13  1  0
 13 14  1  1
 13 15  1  0
 15 16  1  6
 15 17  1  0
 17 18  1  0
 19 18  1  1
 19 20  1  0
 20 21  1  0
 21 22  1  0
 17 23  1  0
 23 24  1  0
  2  7  1  0
  8 13  1  0
 19 22  1  0
  5 16  1  0
  8 24  1  0
M  END
$$$$

     RDKit          3D

 23 26  0  0  0  0  0  0  0  0999 V2000
    2.2250    3.9760   -3.9040 N   0  0  0  0  0  0  0  0  0  0  0  0
    1.3630    3.4740   -3.1060 C   0  0  0  0  0  0  0  0  0  0  0  0
    0.2620    3.2670   -3.5310 O   0  0  0  0  0  0  0  0  0  0  0  0
    1.7250    3.1060   -1.6740 C   0  0  0  0  0  0  0  0  0  0  0  0
    2.4270    4.0420   -0.9460 C   0  0  0  0  0  0  0  0  0  0  0  0
    2.8010    3.7670    0.3930 C   0  0  0  0  0  0  0  0  0  0  0  0
    2.4540    2.5980    0.9440 C   0  0  0  0  0  0  0  0  0  0  0  0
    2.7800    2.3320    2.1570 F   0  0  0  0  0  0  0  0  0  0  0  0
    1.7250    1.6500    0.1870 C   0  0  0  0  0  0  0  0  0  0  0  0
    1.3350    1.8500   -1.0980 C   0  0  0  0  0  0  0  0  0  0  0  0
    0.6550    0.8310   -1.7680 C   0  0  0  0  0  0  0  0  0  0  0  0
    0.0410   -0.1280   -0.9420 C   0  0  1  0  0  0  0  0  0  0  0  0
   -0.4600   -1.3180   -1.7630 N   0  0  0  0  0  0  0  0  0  0  0  0
   -1.8930   -1.2440   -2.0560 C   0  0  1  0  0  0  0  0  0  0  0  0
   -2.6340   -2.3400   -1.3760 C   0  0  0  0  0  0  0  0  0  0  0  0
   -3.8140   -1.4110   -1.0350 C   0  0  0  0  0  0  0  0  0  0  0  0
   -2.7770   -0.3150   -1.3880 C   0  0  0  0  0  0  0  0  0  0  0  0
    0.3590   -1.8990   -2.8470 C   0  0  2  0  0  0  0  0  0  0  0  0
   -0.1350   -2.9430   -3.6410 C   0  0  0  0  0  0  0  0  0  0  0  0
    1.2310   -3.7450   -3.5510 C   0  0  0  0  0  0  0  0  0  0  0  0
    1.4740   -2.7640   -2.3990 C   0  0  0  0  0  0  0  0  0  0  0  0
    0.7730   -0.4990    0.1830 C   0  0  0  0  0  0  0  0  0  0  0  0
    1.3920    0.5240    0.8520 O   0  0  0  0  0  0  0  0  0  0  0  0
  1  2  1  0
  2  3  2  0
  2  4  1  0
  4  5  2  0
  5  6  1  0
  6  7  2  0
  7  8  1  0
  7  9  1  0
  9 10  2  0
 10 11  1  0
 11 12  1  0
 12 13  1  6
 14 13  1  1
 14 15  1  0
 15 16  1  0
 16 17  1  0
 18 13  1  1
 18 19  1  0
 19 20  1  0
 20 21  1  0
 12 22  1  0
 22 23  1  0
  4 10  1  0
 14 17  1  0
 18 21  1  0
  9 23  1  0
M  END
$$$$

     RDKit          3D

 19 21  0  0  0  0  0  0  0  0999 V2000
   -3.5880   -0.3070    1.9940 N   0  0  0  0  0  0  0  0  0  0  0  0
   -2.4340    0.2160    1.5810 C   0  0  0  0  0  0  0  0  0  0  0  0
   -2.1170    1.4750    1.9120 N   0  0  0  0  0  0  0  0  0  0  0  0
   -0.9410    2.0740    1.5170 C   0  0  0  0  0  0  0  0  0  0  0  0
   -0.6780    3.2200    1.8350 O   0  0  0  0  0  0  0  0  0  0  0  0
   -0.0810    1.3040    0.7300 C   0  0  0  0  0  0  0  0  0  0  0  0
    1.1160    1.5340    0.1530 N   0  0  0  0  0  0  0  0  0  0  0  0
    1.4580    0.3950   -0.5080 C   0  0  0  0  0  0  0  0  0  0  0  0
    0.4820   -0.5550   -0.3540 N   0  0  0  0  0  0  0  0  0  0  0  0
    0.4110   -1.9630   -0.9020 C   0  0  2  0  0  0  0  0  0  0  0  0
    1.7020   -2.7460   -0.3450 C   0  0  0  0  0  0  0  0  0  0  0  0
    2.4480   -2.4470   -1.7680 C   0  0  1  0  0  0  0  0  0  0  0  0
    2.9640   -3.8290   -2.1210 C   0  0  0  0  0  0  0  0  0  0  0  0
    3.2400   -4.0760   -3.2880 O   0  0  0  0  0  0  0  0  0  0  0  0
    1.0760   -1.9100   -2.3050 C   0  0  1  0  0  0  0  0  0  0  0  0
    0.1660   -2.7170   -3.2940 C   0  0  0  0  0  0  0  0  0  0  0  0
   -0.8180   -3.4330   -2.8490 O   0  0  0  0  0  0  0  0  0  0  0  0
   -0.4710    0.0250    0.4270 C   0  0  0  0  0  0  0  0  0  0  0  0
   -1.6330   -0.5460    0.8200 N   0  0  0  0  0  0  0  0  0  0  0  0
  1  2  1  0
  2  3  2  0
  3  4  1  0
  4  5  2  0
  4  6  1  0
  6  7  1  0
  7  8  2  0
  8  9  1  0
 10  9  1  1
 10 11  1  0
 11 12  1  0
 12 13  1  6
 13 14  1  0
 12 15  1  0
 15 16  1  6
 16 17  1  0
  9 18  1  0
 18 19  1  0
  2 19  1  0
  6 18  2  0
 10 15  1  0
M  END
$$$$

     RDKit          3D

 23 25  0  0  0  0  0  0  0  0999 V2000
   -2.7570   -1.1360   -1.2170 O   0  0  0  0  0  0  0  0  0  0  0  0
   -1.6160   -0.7640   -0.8370 C   0  0  0  0  0  0  0  0  0  0  0  0
   -1.5040    0.4270   -0.0080 C   0  0  0  0  0  0  0  0  0  0  0  0
   -2.5520    0.8380    0.6210 O   0  0  0  0  0  0  0  0  0  0  0  0
   -0.1970    0.7590    0.4240 C   0  0  0  0  0  0  0  0  0  0  0  0
    0.0010    1.8690    1.3560 C   0  0  0  0  0  0  0  0  0  0  0  0
    1.2130    1.8720    2.0220 C   0  0  0  0  0  0  0  0  0  0  0  0
    1.3720    2.9080    3.0270 C   0  0  0  0  0  0  0  0  0  0  0  0
    2.4930    2.9720    3.6170 O   0  0  0  0  0  0  0  0  0  0  0  0
    0.9070    4.2050    2.5640 C   0  0  0  0  0  0  0  0  0  0  0  0
    0.9480    5.1020    3.5590 O   0  0  0  0  0  0  0  0  0  0  0  0
   -0.4040    4.1640    1.9630 C   0  0  0  0  0  0  0  0  0  0  0  0
   -1.0400    5.2160    1.8460 O   0  0  0  0  0  0  0  0  0  0  0  0
   -0.5420    3.0990    0.9860 C   0  0  0  0  0  0  0  0  0  0  0  0
    0.9020    0.2590   -0.1240 O   0  0  0  0  0  0  0  0  0  0  0  0
    0.7880   -0.8330   -0.9240 C   0  0  0  0  0  0  0  0  0  0  0  0
    1.9980   -1.3970   -1.3780 C   0  0  0  0  0  0  0  0  0  0  0  0
    1.9470   -2.5000   -2.2050 C   0  0  0  0  0  0  0  0  0  0  0  0
    3.0130   -3.0450   -2.6240 O   0  0  0  0  0  0  0  0  0  0  0  0
    0.7440   -3.0390   -2.6120 C   0  0  0  0  0  0  0  0  0  0  0  0
   -0.4380   -2.4680   -2.1650 C   0  0  0  0  0  0  0  0  0  0  0  0
   -1.5710   -2.9830   -2.5400 O   0  0  0  0  0  0  0  0  0  0  0  0
   -0.4160   -1.3510   -1.3170 C   0  0  0  0  0  0  0  0  0  0  0  0
  1  2  2  0
  2  3  1  0
  3  4  1  0
  3  5  2  0
  5  6  1  0
  6  7  2  0
  7  8  1  0
  8  9  1  0
  8 10  2  0
 10 11  1  0
 10 12  1  0
 12 13  1  0
 12 14  2  0
  5 15  1  0
 15 16  1  0
 16 17  2  0
 17 18  1  0
 18 19  1  0
 18 20  2  0
 20 21  1  0
 21 22  1  0
 21 23  2  0
  2 23  1  0
  6 14  1  0
 16 23  1  0
M  END
$$$$

     RDKit          3D

 18 18  0  0  0  0  0  0  0  0999 V2000
    4.0910   -5.8360   -1.3050 N   0  0  0  0  0  0  0  0  0  0  0  0
    2.8570   -5.3020   -1.8500 C   0  0  2  0  0  0  0  0  0  0  0  0
    3.1970   -4.9530   -3.2850 C   0  0  0  0  0  0  0  0  0  0  0  0
    2.3940   -5.2320   -4.2420 O   0  0  0  0  0  0  0  0  0  0  0  0
    2.4320   -4.0480   -1.0900 C   0  0  0  0  0  0  0  0  0  0  0  0
    2.1610   -4.0540    0.0710 O   0  0  0  0  0  0  0  0  0  0  0  0
    2.4840   -2.9170   -1.7690 N   0  0  0  0  0  0  0  0  0  0  0  0
    2.2430   -1.6860   -1.1690 N   0  0  0  0  0  0  0  0  0  0  0  0
    1.1980   -0.9820   -1.5470 C   0  0  0  0  0  0  0  0  0  0  0  0
    0.8480    0.3190   -0.9380 C   0  0  0  0  0  0  0  0  0  0  0  0
    1.1310    1.4400   -1.8170 C   0  0  0  0  0  0  0  0  0  0  0  0
    0.7260    2.7260   -1.3740 C   0  0  0  0  0  0  0  0  0  0  0  0
    0.9540    2.9490    0.0480 C   0  0  0  0  0  0  0  0  0  0  0  0
    0.4140    4.1650    0.4490 O   0  0  0  0  0  0  0  0  0  0  0  0
    0.5900    1.7940    0.9120 C   0  0  0  0  0  0  0  0  0  0  0  0
    0.8570    2.0880    2.2240 O   0  0  0  0  0  0  0  0  0  0  0  0
    1.1060    0.5300    0.4560 C   0  0  0  0  0  0  0  0  0  0  0  0
    0.7520   -0.5780    1.2100 O   0  0  0  0  0  0  0  0  0  0  0  0
  2  1  1  1
  2  3  1  0
  3  4  1  0
  2  5  1  0
  5  6  2  0
  5  7  1  0
  7  8  1  0
  8  9  1  0
  9 10  1  0
 10 11  2  0
 11 12  1  0
 12 13  2  0
 13 14  1  0
 13 15  1  0
 15 16  1  0
 15 17  2  0
 17 18  1  0
 10 17  1  0
M  END
$$$$

     RDKit          3D

 41 44  0  0  0  0  0  0  0  0999 V2000
    6.7870    2.0080   -3.5340 C   0  0  0  0  0  0  0  0  0  0  0  0
    5.9620    3.0590   -4.0920 C   0  0  1  0  0  0  0  0  0  0  0  0
    6.5180    4.3430   -4.5640 C   0  0  0  0  0  0  0  0  0  0  0  0
    4.8890    2.4970   -5.0680 C   0  0  0  0  0  0  0  0  0  0  0  0
    5.2260    1.8230   -6.2460 C   0  0  0  0  0  0  0  0  0  0  0  0
    4.3150    1.2760   -7.1000 C   0  0  0  0  0  0  0  0  0  0  0  0
    2.9960    1.4370   -6.7820 C   0  0  0  0  0  0  0  0  0  0  0  0
    2.6450    2.1090   -5.6540 C   0  0  0  0  0  0  0  0  0  0  0  0
    3.5410    2.6920   -4.7850 C   0  0  0  0  0  0  0  0  0  0  0  0
    3.1020    3.4660   -3.5790 C   0  0  0  0  0  0  0  0  0  0  0  0
    1.6480    3.6210   -3.3420 C   0  0  0  0  0  0  0  0  0  0  0  0
    1.0790    2.9600   -2.2700 C   0  0  0  0  0  0  0  0  0  0  0  0
   -0.2880    3.0660   -1.9490 C   0  0  0  0  0  0  0  0  0  0  0  0
   -0.7790    2.3550   -0.7570 C   0  0  0  0  0  0  0  0  0  0  0  0
   -0.0870    1.7280   -0.1190 O   0  0  0  0  0  0  0  0  0  0  0  0
   -2.0610    2.4440   -0.4530 N   0  0  0  0  0  0  0  0  0  0  0  0
   -2.6680    1.8050    0.6510 C   0  0  0  0  0  0  0  0  0  0  0  0
   -3.2040    0.5790    0.5870 C   0  0  0  0  0  0  0  0  0  0  0  0
   -3.9100    0.0280    1.6530 C   0  0  0  0  0  0  0  0  0  0  0  0
   -4.1170    0.7040    2.7770 C   0  0  0  0  0  0  0  0  0  0  0  0
   -4.9540    0.0730    4.1370 S   0  0  2  0  0  0  0  0  0  0  0  0
   -6.3550   -0.1560    3.7770 O   0  0  0  0  0  0  0  0  0  0  0  0
   -4.9000    1.0170    5.2290 O   0  0  0  0  0  0  0  0  0  0  0  0
   -4.0990   -1.3540    4.6420 C   0  0  0  0  0  0  0  0  0  0  0  0
   -2.9590   -1.1400    5.2980 C   0  0  0  0  0  0  0  0  0  0  0  0
   -2.1580   -2.1420    5.7090 C   0  0  0  0  0  0  0  0  0  0  0  0
   -2.5200   -3.4900    5.4500 C   0  0  0  0  0  0  0  0  0  0  0  0
   -3.6170   -3.6850    4.7570 C   0  0  0  0  0  0  0  0  0  0  0  0
   -4.4660   -2.6840    4.3010 C   0  0  0  0  0  0  0  0  0  0  0  0
   -5.7580   -3.1260    3.5770 C   0  0  2  0  0  0  0  0  0  0  0  0
   -7.0100   -2.7150    4.2970 C   0  0  0  0  0  0  0  0  0  0  0  0
   -5.8490   -4.6320    3.5370 C   0  0  0  0  0  0  0  0  0  0  0  0
   -5.7960   -2.7510    2.1390 C   0  0  0  0  0  0  0  0  0  0  0  0
   -3.5930    1.9130    2.8530 C   0  0  0  0  0  0  0  0  0  0  0  0
   -2.8880    2.4790    1.7910 C   0  0  0  0  0  0  0  0  0  0  0  0
   -1.1110    3.8940   -2.7750 C   0  0  0  0  0  0  0  0  0  0  0  0
   -2.4390    4.0350   -2.4900 O   0  0  0  0  0  0  0  0  0  0  0  0
   -0.5680    4.5670   -3.9030 C   0  0  0  0  0  0  0  0  0  0  0  0
   -1.3150    5.3170   -4.7060 O   0  0  0  0  0  0  0  0  0  0  0  0
    0.8330    4.4120   -4.2070 C   0  0  0  0  0  0  0  0  0  0  0  0
    1.3760    5.0660   -5.2820 O   0  0  0  0  0  0  0  0  0  0  0  0
  2  1  1  6
  2  3  1  0
  2  4  1  0
  4  5  2  0
  5  6  1  0
  6  7  2  0
  7  8  1  0
  8  9  2  0
  9 10  1  0
 10 11  1  0
 11 12  2  0
 12 13  1  0
 13 14  1  0
 14 15  2  0
 14 16  1  0
 16 17  1  0
 17 18  2  0
 18 19  1  0
 19 20  2  0
 21 20  1  6
 21 22  2  0
 21 23  2  0
 21 24  1  0
 24 25  2  0
 25 26  1  0
 26 27  2  0
 27 28  1  0
 28 29  2  0
 29 30  1  0
 30 31  1  1
 30 32  1  0
 30 33  1  0
 20 34  1  0
 34 35  2  0
 13 36  2  0
 36 37  1  0
 36 38  1  0
 38 39  1  0
 38 40  2  0
 40 41  1  0
  4  9  1  0
 11 40  1  0
 17 35  1  0
 24 29  1  0
M  END
$$$$

     RDKit          3D

 16 17  0  0  0  0  0  0  0  0999 V2000
   -1.0950   -1.1370    1.2540 O   0  0  0  0  0  0  0  0  0  0  0  0
   -1.9240   -0.5660    0.6290 C   0  0  0  0  0  0  0  0  0  0  0  0
   -2.2920   -1.0980   -0.5640 N   0  0  0  0  0  0  0  0  0  0  0  0
   -1.7970   -2.3110   -1.1430 C   0  0  0  0  0  0  0  0  0  0  0  0
   -0.5690   -2.2040   -1.8840 N   0  0  0  0  0  0  0  0  0  0  0  0
   -0.2780   -3.2980   -2.6940 C   0  0  0  0  0  0  0  0  0  0  0  0
    0.9110   -3.1650   -3.5470 C   0  0  0  0  0  0  0  0  0  0  0  0
    1.7790   -2.1020   -3.3300 O   0  0  0  0  0  0  0  0  0  0  0  0
    1.4460   -1.0170   -2.6020 C   0  0  0  0  0  0  0  0  0  0  0  0
    0.2020   -1.0460   -1.7830 C   0  0  0  0  0  0  0  0  0  0  0  0
   -2.6230    0.6560    1.1140 C   0  0  0  0  0  0  0  0  0  0  0  0
   -2.2570    1.3740    2.2360 C   0  0  0  0  0  0  0  0  0  0  0  0
   -2.8590    2.5180    2.6310 N   0  0  0  0  0  0  0  0  0  0  0  0
   -3.8520    3.0140    1.8990 C   0  0  0  0  0  0  0  0  0  0  0  0
   -4.3000    2.3290    0.7770 C   0  0  0  0  0  0  0  0  0  0  0  0
   -3.6570    1.1710    0.4160 N   0  0  0  0  0  0  0  0  0  0  0  0
  1  2  2  0
  2  3  1  0
  3  4  1  0
  4  5  1  0
  5  6  1  0
  6  7  1  0
  7  8  1  0
  8  9  1  0
  9 10  1  0
  2 11  1  0
 11 12  2  0
 12 13  1  0
 13 14  2  0
 14 15  1  0
 15 16  2  0
  5 10  1  0
 11 16  1  0
M  END
$$$$

     RDKit          3D

 27 30  0  0  0  0  0  0  0  0999 V2000
   -6.0740    0.0760   -3.5840 C   0  0  0  0  0  0  0  0  0  0  0  0
   -4.7490   -0.2310   -3.5560 N   0  0  0  0  0  0  0  0  0  0  0  0
   -3.9460    0.4420   -4.6060 C   0  0  0  0  0  0  0  0  0  0  0  0
   -2.5970   -0.1180   -4.6930 C   0  0  0  0  0  0  0  0  0  0  0  0
   -1.9110   -0.2330   -3.4130 N   0  0  0  0  0  0  0  0  0  0  0  0
   -0.6380   -0.0310   -3.3180 C   0  0  0  0  0  0  0  0  0  0  0  0
    0.0060    0.1060   -4.2710 O   0  0  0  0  0  0  0  0  0  0  0  0
   -0.0610   -0.0210   -2.0880 O   0  0  0  0  0  0  0  0  0  0  0  0
    1.3110   -0.1890   -1.9220 C   0  0  1  0  0  0  0  0  0  0  0  0
    2.1350    1.0350   -1.8830 C   0  0  0  0  0  0  0  0  0  0  0  0
    2.3480    1.9700   -2.7840 N   0  0  0  0  0  0  0  0  0  0  0  0
    3.2310    3.0260   -2.4510 C   0  0  0  0  0  0  0  0  0  0  0  0
    3.7930    3.0850   -1.1760 C   0  0  0  0  0  0  0  0  0  0  0  0
    3.5410    2.1260   -0.2340 N   0  0  0  0  0  0  0  0  0  0  0  0
    2.7100    1.1200   -0.5900 C   0  0  0  0  0  0  0  0  0  0  0  0
    2.2690   -0.0060    0.1540 C   0  0  0  0  0  0  0  0  0  0  0  0
    2.5620   -0.2610    1.3290 O   0  0  0  0  0  0  0  0  0  0  0  0
    1.4320   -0.7680   -0.6540 N   0  0  0  0  0  0  0  0  0  0  0  0
    0.8120   -1.9890   -0.2910 C   0  0  0  0  0  0  0  0  0  0  0  0
    0.2170   -2.0810    0.9300 C   0  0  0  0  0  0  0  0  0  0  0  0
   -0.4090   -3.3170    1.2270 C   0  0  0  0  0  0  0  0  0  0  0  0
   -0.3680   -4.2850    0.3230 C   0  0  0  0  0  0  0  0  0  0  0  0
   -1.0860   -5.6950    0.6570 Cl  0  0  0  0  0  0  0  0  0  0  0  0
    0.2340   -4.0990   -0.8800 C   0  0  0  0  0  0  0  0  0  0  0  0
    0.8070   -2.9300   -1.1670 N   0  0  0  0  0  0  0  0  0  0  0  0
   -2.7260   -0.7020   -2.2420 C   0  0  0  0  0  0  0  0  0  0  0  0
   -4.1170   -0.1910   -2.2070 C   0  0  0  0  0  0  0  0  0  0  0  0
  1  2  1  0
  2  3  1  0
  3  4  1  0
  4  5  1  0
  5  6  1  0
  6  7  2  0
  6  8  1  0
  9  8  1  1
  9 10  1  0
 10 11  2  0
 11 12  1  0
 12 13  2  0
 13 14  1  0
 14 15  2  0
 15 16  1  0
 16 17  2  0
 16 18  1  0
 18 19  1  0
 19 20  2  0
 20 21  1  0
 21 22  2  0
 22 23  1  0
 22 24  1  0
 24 25  2  0
  5 26  1  0
 26 27  1  0
  2 27  1  0
  9 18  1  0
 19 25  1  0
 10 15  1  0
M  END
$$$$

     RDKit          3D

  8  8  0  0  0  0  0  0  0  0999 V2000
    0.2440   -2.0120    2.2750 N   0  0  0  0  0  0  0  0  0  0  0  0
    0.2870   -2.2770    0.9780 C   0  0  0  0  0  0  0  0  0  0  0  0
   -0.3360   -3.3420    0.3900 C   0  0  0  0  0  0  0  0  0  0  0  0
   -0.2540   -3.5660   -0.9420 N   0  0  0  0  0  0  0  0  0  0  0  0
    0.4490   -2.7390   -1.7460 C   0  0  0  0  0  0  0  0  0  0  0  0
    1.0670   -1.6730   -1.1900 C   0  0  0  0  0  0  0  0  0  0  0  0
    1.9940   -0.5450   -2.1190 Cl  0  0  0  0  0  0  0  0  0  0  0  0
    1.0220   -1.3920    0.2030 N   0  0  0  0  0  0  0  0  0  0  0  0
  1  2  1  0
  2  3  2  0
  3  4  1  0
  4  5  2  0
  5  6  1  0
  6  7  1  0
  6  8  2  0
  2  8  1  0
M  END
$$$$

     RDKit          3D

 11 12  0  0  0  0  0  0  0  0999 V2000
   -2.0980   -1.4810    0.8090 O   0  0  0  0  0  0  0  0  0  0  0  0
   -1.6260   -0.8380   -0.1410 C   0  0  0  0  0  0  0  0  0  0  0  0
   -0.3100   -0.5620   -0.3410 N   0  0  0  0  0  0  0  0  0  0  0  0
   -0.1810    0.1880   -1.5260 C   0  0  0  0  0  0  0  0  0  0  0  0
    0.9740    0.6880   -2.1290 C   0  0  0  0  0  0  0  0  0  0  0  0
    0.8410    1.3710   -3.3130 C   0  0  0  0  0  0  0  0  0  0  0  0
   -0.4610    1.5570   -3.9200 C   0  0  0  0  0  0  0  0  0  0  0  0
   -1.5740    1.0570   -3.2930 C   0  0  0  0  0  0  0  0  0  0  0  0
   -1.4050    0.3690   -2.0650 C   0  0  0  0  0  0  0  0  0  0  0  0
   -2.4130   -0.1420   -1.1400 C   0  0  0  0  0  0  0  0  0  0  0  0
   -3.4190   -0.9160   -1.7140 O   0  0  0  0  0  0  0  0  0  0  0  0
  1  2  2  0
  2  3  1  0
  3  4  1  0
  4  5  2  0
  5  6  1  0
  6  7  2  0
  7  8  1  0
  8  9  2  0
  9 10  1  0
 10 11  2  0
  2 10  1  0
  4  9  1  0
M  END
$$$$

     RDKit          3D

 21 24  0  0  0  0  0  0  0  0999 V2000
   -5.1150   -3.2430    0.1530 C   0  0  0  0  0  0  0  0  0  0  0  0
   -4.7760   -1.8720    0.5350 C   0  0  0  0  0  0  0  0  0  0  0  0
   -5.5200   -1.0810    1.4380 C   0  0  0  0  0  0  0  0  0  0  0  0
   -4.8840    0.1760    1.5700 O   0  0  0  0  0  0  0  0  0  0  0  0
   -3.7850    0.1560    0.7630 C   0  0  0  0  0  0  0  0  0  0  0  0
   -3.6490   -1.0730    0.0970 C   0  0  0  0  0  0  0  0  0  0  0  0
   -2.5740   -1.3120   -0.7900 C   0  0  0  0  0  0  0  0  0  0  0  0
   -2.4790   -2.4600   -1.3940 O   0  0  0  0  0  0  0  0  0  0  0  0
   -1.5860   -0.2400   -1.0000 C   0  0  0  0  0  0  0  0  0  0  0  0
   -0.6300   -0.4730   -1.8050 O   0  0  0  0  0  0  0  0  0  0  0  0
   -1.7590    1.0350   -0.2880 C   0  0  0  0  0  0  0  0  0  0  0  0
   -2.8430    1.2220    0.5800 C   0  0  0  0  0  0  0  0  0  0  0  0
   -3.0650    2.4500    1.2980 C   0  0  0  0  0  0  0  0  0  0  0  0
   -2.1690    3.5260    1.1460 C   0  0  0  0  0  0  0  0  0  0  0  0
   -1.0200    3.3980    0.2690 C   0  0  0  0  0  0  0  0  0  0  0  0
   -0.0950    4.4780    0.1010 C   0  0  0  0  0  0  0  0  0  0  0  0
   -0.2490    5.7660    0.7990 C   0  0  0  0  0  0  0  0  0  0  0  0
    1.0080    4.3790   -0.7320 C   0  0  0  0  0  0  0  0  0  0  0  0
    1.2220    3.1830   -1.4320 C   0  0  0  0  0  0  0  0  0  0  0  0
    0.3450    2.1050   -1.2970 C   0  0  0  0  0  0  0  0  0  0  0  0
   -0.8120    2.1570   -0.4520 C   0  0  0  0  0  0  0  0  0  0  0  0
  1  2  1  0
  2  3  2  0
  3  4  1  0
  4  5  1  0
  5  6  2  0
  6  7  1  0
  7  8  2  0
  7  9  1  0
  9 10  2  0
  9 11  1  0
 11 12  2  0
 12 13  1  0
 13 14  2  0
 14 15  1  0
 15 16  2  0
 16 17  1  0
 16 18  1  0
 18 19  2  0
 19 20  1  0
 20 21  2  0
  2  6  1  0
 11 21  1  0
  5 12  1  0
 15 21  1  0
M  END
$$$$

     RDKit          3D

 16 16  0  0  0  0  0  0  0  0999 V2000
    5.3710    0.1300    1.7320 C   0  0  0  0  0  0  0  0  0  0  0  0
    4.1770   -0.1680    1.2380 C   0  0  0  0  0  0  0  0  0  0  0  0
    3.5370    0.5710    0.2170 C   0  0  0  0  0  0  0  0  0  0  0  0
    2.2080    0.2980   -0.0950 C   0  0  0  0  0  0  0  0  0  0  0  0
    1.9560   -0.4200   -1.2100 O   0  0  0  0  0  0  0  0  0  0  0  0
    0.8290   -1.2070   -1.1800 C   0  0  0  0  0  0  0  0  0  0  0  0
   -0.4690   -0.6860   -1.7740 C   0  0  0  0  0  0  0  0  0  0  0  0
   -0.6680    0.6170   -1.9250 O   0  0  0  0  0  0  0  0  0  0  0  0
   -1.7230    1.0240   -1.1970 C   0  0  0  0  0  0  0  0  0  0  0  0
   -2.0940    2.3290   -1.3980 C   0  0  0  0  0  0  0  0  0  0  0  0
   -3.2110    2.8080   -0.7430 C   0  0  0  0  0  0  0  0  0  0  0  0
   -3.7190    3.9990   -0.9020 C   0  0  0  0  0  0  0  0  0  0  0  0
   -0.1720   -1.3750   -3.1600 C   0  0  0  0  0  0  0  0  0  0  0  0
   -1.1570   -2.0830   -3.6090 O   0  0  0  0  0  0  0  0  0  0  0  0
    0.8880   -2.2390   -2.3220 C   0  0  0  0  0  0  0  0  0  0  0  0
    1.9360   -2.4780   -3.0180 O   0  0  0  0  0  0  0  0  0  0  0  0
  1  2  1  0
  2  3  1  0
  3  4  1  0
  4  5  1  0
  5  6  1  0
  6  7  2  0
  7  8  1  0
  8  9  1  0
  9 10  1  0
 10 11  1  0
 11 12  1  0
  7 13  1  0
 13 14  2  0
 13 15  1  0
 15 16  2  0
  6 15  1  0
M  END
$$$$

     RDKit          3D

 29 32  0  0  0  0  0  0  0  0999 V2000
    6.5310    5.3700    1.3840 C   0  0  0  0  0  0  0  0  0  0  0  0
    5.1630    5.6100    0.7790 C   0  0  2  0  0  0  0  0  0  0  0  0
    4.3950    6.5940    1.6280 C   0  0  0  0  0  0  0  0  0  0  0  0
    4.4890    4.3230    0.7470 C   0  0  0  0  0  0  0  0  0  0  0  0
    3.7700    3.8810   -0.4690 C   0  0  1  0  0  0  0  0  0  0  0  0
    2.4510    3.6620   -0.0940 O   0  0  0  0  0  0  0  0  0  0  0  0
    2.0190    2.3750   -0.0500 C   0  0  0  0  0  0  0  0  0  0  0  0
    0.9780    2.0650    0.7430 C   0  0  0  0  0  0  0  0  0  0  0  0
    0.4910    0.7490    0.7750 C   0  0  0  0  0  0  0  0  0  0  0  0
    1.1060   -0.1920    0.0220 C   0  0  0  0  0  0  0  0  0  0  0  0
    0.5850   -1.5920    0.0390 C   0  0  0  0  0  0  0  0  0  0  0  0
    1.2130   -2.5690    0.7950 C   0  0  0  0  0  0  0  0  0  0  0  0
    0.7470   -3.8980    0.8110 C   0  0  0  0  0  0  0  0  0  0  0  0
   -0.3460   -4.2750    0.0720 C   0  0  0  0  0  0  0  0  0  0  0  0
   -0.8380   -5.6570    0.0850 C   0  0  0  0  0  0  0  0  0  0  0  0
   -1.8350   -6.1960   -0.6640 C   0  0  0  0  0  0  0  0  0  0  0  0
   -1.9750   -7.5680   -0.3170 N   0  0  0  0  0  0  0  0  0  0  0  0
   -1.1160   -7.8440    0.6110 N   0  0  0  0  0  0  0  0  0  0  0  0
   -0.3950   -6.6710    0.8760 C   0  0  0  0  0  0  0  0  0  0  0  0
   -0.9850   -3.3240   -0.6960 C   0  0  0  0  0  0  0  0  0  0  0  0
   -0.5430   -2.0010   -0.7170 C   0  0  0  0  0  0  0  0  0  0  0  0
   -1.1590   -1.0650   -1.4380 O   0  0  0  0  0  0  0  0  0  0  0  0
    2.1500    0.1200   -0.7300 N   0  0  0  0  0  0  0  0  0  0  0  0
    2.6000    1.4000   -0.7660 N   0  0  0  0  0  0  0  0  0  0  0  0
    3.6310    4.8020   -1.6240 C   0  0  0  0  0  0  0  0  0  0  0  0
    4.5730    5.8590   -1.8020 C   0  0  2  0  0  0  0  0  0  0  0  0
    3.7310    7.0060   -2.3720 C   0  0  0  0  0  0  0  0  0  0  0  0
    5.6520    5.4140   -2.7630 C   0  0  0  0  0  0  0  0  0  0  0  0
    5.2790    6.3120   -0.5590 N   0  0  0  0  0  0  0  0  0  0  0  0
  2  1  1  1
  2  3  1  0
  2  4  1  0
  4  5  1  0
  5  6  1  1
  6  7  1  0
  7  8  2  0
  8  9  1  0
  9 10  2  0
 10 11  1  0
 11 12  2  0
 12 13  1  0
 13 14  2  0
 14 15  1  0
 15 16  1  0
 16 17  2  0
 17 18  1  0
 18 19  1  0
 14 20  1  0
 20 21  2  0
 21 22  1  0
 10 23  1  0
 23 24  2  0
  5 25  1  0
 25 26  1  0
 26 27  1  6
 26 28  1  0
 26 29  1  0
  2 29  1  0
  7 24  1  0
 11 21  1  0
 15 19  2  0
M  END
$$$$

     RDKit          3D

 17 18  0  0  0  0  0  0  0  0999 V2000
    3.7540   -0.4200   -3.2000 C   0  0  0  0  0  0  0  0  0  0  0  0
    2.2870   -0.5860   -2.7720 C   0  0  2  0  0  0  0  0  0  0  0  0
    1.4240   -1.0440   -3.9350 C   0  0  0  0  0  0  0  0  0  0  0  0
    1.7460    0.6640   -2.2540 C   0  0  0  0  0  0  0  0  0  0  0  0
    0.8850    0.6630   -1.0790 C   0  0  2  0  0  0  0  0  0  0  0  0
    0.8500    1.9640   -0.5390 O   0  0  0  0  0  0  0  0  0  0  0  0
   -0.2410    2.6660   -0.7020 C   0  0  0  0  0  0  0  0  0  0  0  0
   -1.1670    2.2990   -1.4120 O   0  0  0  0  0  0  0  0  0  0  0  0
   -0.2450    3.9740    0.0160 C   0  0  2  0  0  0  0  0  0  0  0  0
   -1.5350    4.4060    0.4750 C   0  0  0  0  0  0  0  0  0  0  0  0
   -0.9100    5.0830   -0.6490 C   0  0  0  0  0  0  0  0  0  0  0  0
    1.2770   -0.2130   -0.0040 C   0  0  0  0  0  0  0  0  0  0  0  0
    1.7630   -1.5430   -0.2590 C   0  0  1  0  0  0  0  0  0  0  0  0
    2.9390   -1.9000    0.6630 C   0  0  0  0  0  0  0  0  0  0  0  0
    0.6150   -2.5110   -0.0580 C   0  0  0  0  0  0  0  0  0  0  0  0
    2.3180   -1.6760   -1.7010 N   0  0  0  0  0  0  0  0  0  0  0  0
    2.8110   -2.8540   -2.0380 O   0  0  0  0  0  0  0  0  0  0  0  0
  2  1  1  6
  2  3  1  0
  2  4  1  0
  4  5  1  0
  5  6  1  1
  6  7  1  0
  7  8  2  0
  9  7  1  6
  9 10  1  0
 10 11  1  0
  5 12  1  0
 12 13  1  0
 13 14  1  1
 13 15  1  0
 13 16  1  0
 16 17  1  0
  2 16  1  0
  9 11  1  0
M  END
$$$$

     RDKit          3D

 19 19  0  0  0  0  0  0  0  0999 V2000
   -3.7310    2.1540   -5.3250 C   0  0  0  0  0  0  0  0  0  0  0  0
   -2.7580    1.7100   -4.5090 C   0  0  0  0  0  0  0  0  0  0  0  0
   -2.9550    0.9630   -3.3360 C   0  0  0  0  0  0  0  0  0  0  0  0
   -1.8730    0.3560   -2.7800 O   0  0  0  0  0  0  0  0  0  0  0  0
   -2.0350   -0.5710   -1.8480 C   0  0  0  0  0  0  0  0  0  0  0  0
   -3.0350   -0.7210   -1.4810 O   0  0  0  0  0  0  0  0  0  0  0  0
   -0.8010   -1.4070   -1.4600 C   0  0  0  0  0  0  0  0  0  0  0  0
   -0.8430   -1.8130    0.2840 S   0  0  0  0  0  0  0  0  0  0  0  0
    0.8730   -1.5440    0.4970 C   0  0  0  0  0  0  0  0  0  0  0  0
    1.5400   -2.6630    1.2460 C   0  0  0  0  0  0  0  0  0  0  0  0
    1.1850   -3.7000    1.3870 O   0  0  0  0  0  0  0  0  0  0  0  0
    2.7060   -2.2980    1.7480 O   0  0  0  0  0  0  0  0  0  0  0  0
    3.3400   -3.0470    2.6590 C   0  0  0  0  0  0  0  0  0  0  0  0
    4.4200   -2.4160    3.3080 C   0  0  0  0  0  0  0  0  0  0  0  0
    5.0030   -2.8260    4.4060 C   0  0  0  0  0  0  0  0  0  0  0  0
    1.4400   -1.5160   -0.8790 C   0  0  0  0  0  0  0  0  0  0  0  0
    2.6270   -0.9950   -0.8340 O   0  0  0  0  0  0  0  0  0  0  0  0
    0.4220   -0.6710   -1.6410 C   0  0  0  0  0  0  0  0  0  0  0  0
    0.6580   -0.5910   -2.9560 O   0  0  0  0  0  0  0  0  0  0  0  0
  1  2  1  0
  2  3  1  0
  3  4  1  0
  4  5  1  0
  5  6  2  0
  5  7  1  0
  7  8  1  0
  8  9  1  0
  9 10  1  0
 10 11  2  0
 10 12  1  0
 12 13  1  0
 13 14  1  0
 14 15  1  0
  9 16  2  0
 16 17  1  0
 16 18  1  0
 18 19  1  0
  7 18  2  0
M  END
$$$$

     RDKit          3D

 17 18  0  0  0  0  0  0  0  0999 V2000
    0.9100   -1.2390   -3.4870 C   0  0  0  0  0  0  0  0  0  0  0  0
    0.7390   -0.6700   -2.2090 O   0  0  0  0  0  0  0  0  0  0  0  0
   -0.0830    0.3600   -2.0380 C   0  0  0  0  0  0  0  0  0  0  0  0
   -0.7500    0.7620   -3.0290 O   0  0  0  0  0  0  0  0  0  0  0  0
   -0.5300    1.0230   -0.7400 C   0  0  2  0  0  0  0  0  0  0  0  0
   -0.1090    2.4050   -0.6250 C   0  0  0  0  0  0  0  0  0  0  0  0
   -0.9310    3.1310    0.3160 C   0  0  0  0  0  0  0  0  0  0  0  0
   -0.9170    4.5100    0.3940 C   0  0  0  0  0  0  0  0  0  0  0  0
   -0.1460    5.2240   -0.4790 C   0  0  0  0  0  0  0  0  0  0  0  0
    0.6630    4.5580   -1.4120 C   0  0  0  0  0  0  0  0  0  0  0  0
    0.6090    3.1630   -1.5310 C   0  0  0  0  0  0  0  0  0  0  0  0
   -0.4170   -0.1220    0.2410 C   0  0  2  0  0  0  0  0  0  0  0  0
   -1.9170   -0.4700    0.4720 C   0  0  0  0  0  0  0  0  0  0  0  0
   -2.2610   -1.1880    1.6060 C   0  0  0  0  0  0  0  0  0  0  0  0
   -1.4490   -1.1830    2.7100 C   0  0  0  0  0  0  0  0  0  0  0  0
   -0.1400   -0.6030    2.6120 C   0  0  0  0  0  0  0  0  0  0  0  0
    0.1680    0.1550    1.5160 N   0  0  0  0  0  0  0  0  0  0  0  0
  1  2  1  0
  2  3  1  0
  3  4  2  0
  5  3  1  6
  5  6  1  0
  6  7  2  0
  7  8  1  0
  8  9  2  0
  9 10  1  0
 10 11  2  0
  5 12  1  0
 12 13  1  1
 13 14  1  0
 14 15  1  0
 15 16  1  0
 16 17  1  0
  6 11  1  0
 12 17  1  0
M  END
$$$$

     RDKit          3D

 22 25  0  0  0  0  0  0  0  0999 V2000
   -0.3060   -3.2690   -4.3020 Cl  0  0  0  0  0  0  0  0  0  0  0  0
   -0.1690   -2.3060   -2.9380 C   0  0  0  0  0  0  0  0  0  0  0  0
   -0.2600   -2.8410   -1.6750 C   0  0  0  0  0  0  0  0  0  0  0  0
   -0.1430   -2.0040   -0.5290 C   0  0  0  0  0  0  0  0  0  0  0  0
    0.0720   -0.6260   -0.6530 C   0  0  0  0  0  0  0  0  0  0  0  0
    0.1220   -0.1340   -1.9920 C   0  0  0  0  0  0  0  0  0  0  0  0
    0.0250   -0.9520   -3.1100 C   0  0  0  0  0  0  0  0  0  0  0  0
    0.2130    1.3030   -2.3640 C   0  0  0  0  0  0  0  0  0  0  0  0
    0.9290    2.1650   -1.7650 C   0  0  0  0  0  0  0  0  0  0  0  0
    0.6000    2.5060   -0.3650 C   0  0  0  0  0  0  0  0  0  0  0  0
    0.6620    3.8670   -0.1630 C   0  0  0  0  0  0  0  0  0  0  0  0
    0.4510    4.3470    1.0830 C   0  0  0  0  0  0  0  0  0  0  0  0
    0.1560    3.4580    2.1340 C   0  0  0  0  0  0  0  0  0  0  0  0
    0.0830    2.1270    1.9200 N   0  0  0  0  0  0  0  0  0  0  0  0
    0.2640    1.5990    0.6710 C   0  0  0  0  0  0  0  0  0  0  0  0
    0.1710    0.1680    0.5350 C   0  0  0  0  0  0  0  0  0  0  0  0
    0.1830   -0.5970    1.8010 C   0  0  0  0  0  0  0  0  0  0  0  0
   -0.9590   -0.8080    2.5280 C   0  0  0  0  0  0  0  0  0  0  0  0
   -0.9420   -1.5660    3.7160 C   0  0  0  0  0  0  0  0  0  0  0  0
    0.2380   -1.9790    4.2190 N   0  0  0  0  0  0  0  0  0  0  0  0
    1.4000   -1.7340    3.5610 C   0  0  0  0  0  0  0  0  0  0  0  0
    1.3650   -0.9950    2.3560 C   0  0  0  0  0  0  0  0  0  0  0  0
  1  2  1  0
  2  3  2  0
  3  4  1  0
  4  5  2  0
  5  6  1  0
  6  7  2  0
  6  8  1  0
  8  9  1  0
  9 10  1  0
 10 11  2  0
 11 12  1  0
 12 13  2  0
 13 14  1  0
 14 15  2  0
 15 16  1  0
 16 17  2  3
 17 18  1  0
 18 19  1  0
 19 20  1  0
 20 21  1  0
 21 22  1  0
  2  7  1  0
 10 15  1  0
 17 22  1  0
  5 16  1  0
M  END
$$$$

     RDKit          3D

 20 22  0  0  0  0  0  0  0  0999 V2000
    1.7560   -5.6880   -1.9470 C   0  0  0  0  0  0  0  0  0  0  0  0
    1.8360   -5.4870   -0.5850 C   0  0  0  0  0  0  0  0  0  0  0  0
    1.9070   -4.2210   -0.0960 C   0  0  0  0  0  0  0  0  0  0  0  0
    1.8330   -3.1170   -0.9340 C   0  0  0  0  0  0  0  0  0  0  0  0
    1.8730   -1.7770   -0.3340 C   0  0  2  0  0  0  0  0  0  0  0  0
    1.2300   -0.6110   -0.8670 C   0  0  0  0  0  0  0  0  0  0  0  0
   -0.2230   -0.6920   -1.4120 C   0  0  1  0  0  0  0  0  0  0  0  0
   -1.1580   -1.5640   -0.8740 C   0  0  0  0  0  0  0  0  0  0  0  0
   -2.5250   -1.4090   -1.1390 C   0  0  0  0  0  0  0  0  0  0  0  0
   -3.0120   -0.2330   -1.5010 C   0  0  0  0  0  0  0  0  0  0  0  0
   -2.1250    0.8050   -1.7640 C   0  0  0  0  0  0  0  0  0  0  0  0
   -0.8150    0.6300   -1.4930 N   0  0  0  0  0  0  0  0  0  0  0  0
    3.1460   -1.3760    0.2830 C   0  0  0  0  0  0  0  0  0  0  0  0
    3.1520   -1.1300    1.6240 C   0  0  0  0  0  0  0  0  0  0  0  0
    4.2990   -0.7650    2.2580 C   0  0  0  0  0  0  0  0  0  0  0  0
    5.4650   -0.6420    1.5270 C   0  0  0  0  0  0  0  0  0  0  0  0
    5.4610   -0.8580    0.1750 C   0  0  0  0  0  0  0  0  0  0  0  0
    4.2990   -1.2340   -0.4590 C   0  0  0  0  0  0  0  0  0  0  0  0
    1.7270   -3.3440   -2.2930 C   0  0  0  0  0  0  0  0  0  0  0  0
    1.6890   -4.6070   -2.7890 C   0  0  0  0  0  0  0  0  0  0  0  0
  1  2  1  0
  2  3  1  0
  3  4  1  0
  4  5  1  0
  5  6  1  6
  7  6  1  1
  7  8  1  0
  8  9  1  0
  9 10  1  0
 10 11  1  0
 11 12  1  0
  5 13  1  0
 13 14  1  0
 14 15  1  0
 15 16  1  0
 16 17  1  0
 17 18  1  0
  4 19  1  0
 19 20  1  0
  1 20  1  0
  7 12  1  0
 13 18  1  0
M  END
$$$$

     RDKit          3D

  4  3  0  0  0  0  0  0  0  0999 V2000
   -2.3130    0.2630    0.8310 C   0  0  0  0  0  0  0  0  0  0  0  0
   -1.4020   -0.1720    1.5740 N   0  0  0  0  0  0  0  0  0  0  0  0
   -0.6470   -0.5280    2.1850 C   0  0  0  0  0  0  0  0  0  0  0  0
    0.1740   -0.9050    2.8710 O   0  0  0  0  0  0  0  0  0  0  0  0
  1  2  1  0
  2  3  2  0
  3  4  2  0
M  END
$$$$

     RDKit          3D

  4  3  0  0  0  0  0  0  0  0999 V2000
    0.9270    1.2600   -0.2240 C   0  0  0  0  0  0  0  0  0  0  0  0
    0.2750    0.9980   -1.1620 N   0  0  0  0  0  0  0  0  0  0  0  0
   -0.3070    0.7840   -2.0130 C   0  0  0  0  0  0  0  0  0  0  0  0
   -1.3060    0.4930   -3.3940 S   0  0  0  0  0  0  0  0  0  0  0  0
  1  2  1  0
  2  3  2  0
  3  4  2  0
M  END
$$$$

     RDKit          3D

  4  3  0  0  0  0  0  0  0  0999 V2000
   -0.3190    0.5830   -0.5750 C   0  0  0  0  0  0  0  0  0  0  0  0
   -1.2500   -0.3840   -0.2520 C   0  0  0  0  0  0  0  0  0  0  0  0
   -1.2840   -1.6800   -0.4440 C   0  0  0  0  0  0  0  0  0  0  0  0
   -2.2210   -2.5730   -0.1220 C   0  0  0  0  0  0  0  0  0  0  0  0
  1  2  1  0
  2  3  2  0
  3  4  2  0
M  END
$$$$

     RDKit          2D

  1  0  0  0  0  0  0  0  0  0999 V2000
    0.0000    0.0000    0.0000 C   0  0  0  0  0  0  0  0  0  0  0  0
M  END
$$$$

     RDKit          3D

  6  5  0  0  0  0  0  0  0  0999 V2000
   -0.4020    3.0540   -0.4670 C   0  0  0  0  0  0  0  0  0  0  0  0
   -0.7730    1.7950   -0.0140 C   0  0  0  0  0  0  0  0  0  0  0  0
   -1.5710    1.8040    1.1240 C   0  0  0  0  0  0  0  0  0  0  0  0
   -0.4090    0.7260   -0.5540 C   0  0  0  0  0  0  0  0  0  0  0  0
    0.2880    0.3820   -1.6780 C   0  0  0  0  0  0  0  0  0  0  0  0
    0.6080   -1.0360   -2.0360 C   0  0  0  0  0  0  0  0  0  0  0  0
  1  2  1  0
  2  3  1  0
  2  4  2  0
  4  5  2  0
  5  6  1  0
M  END
$$$$

     RDKit          3D

  7  6  0  0  0  0  0  0  0  0999 V2000
   -0.7470    2.4570   -2.8290 C   0  0  0  0  0  0  0  0  0  0  0  0
   -1.2840    1.2200   -2.5470 C   0  0  0  0  0  0  0  0  0  0  0  0
   -2.1520    0.8410   -3.5650 C   0  0  0  0  0  0  0  0  0  0  0  0
   -0.9700    0.5350   -1.5630 C   0  0  0  0  0  0  0  0  0  0  0  0
   -1.1480   -0.4420   -0.7370 C   0  0  0  0  0  0  0  0  0  0  0  0
   -1.6000   -0.2580    0.5750 C   0  0  0  0  0  0  0  0  0  0  0  0
   -0.5690   -1.7110   -0.8600 C   0  0  0  0  0  0  0  0  0  0  0  0
  1  2  1  0
  2  3  1  0
  2  4  2  0
  4  5  2  0
  5  6  1  0
  5  7  1  0
M  END
$$$$

     RDKit          3D

 14 15  0  0  0  0  0  0  0  0999 V2000
    1.5340    2.7350    0.6140 C   0  0  0  0  0  0  0  0  0  0  0  0
    2.4940    3.6030    0.9730 C   0  0  0  0  0  0  0  0  0  0  0  0
    3.7870    3.1540    1.1430 C   0  0  0  0  0  0  0  0  0  0  0  0
    4.0630    1.8350    0.9410 C   0  0  0  0  0  0  0  0  0  0  0  0
    3.0880    0.9780    0.6020 C   0  0  0  0  0  0  0  0  0  0  0  0
    1.7890    1.4380    0.4200 C   0  0  0  0  0  0  0  0  0  0  0  0
    0.7080    0.5120    0.0250 C   0  0  0  0  0  0  0  0  0  0  0  0
    0.7500   -0.8170    0.2170 C   0  0  0  0  0  0  0  0  0  0  0  0
   -0.3280   -1.7460   -0.1590 C   0  0  0  0  0  0  0  0  0  0  0  0
   -0.1140   -3.0740   -0.2230 C   0  0  0  0  0  0  0  0  0  0  0  0
   -1.0840   -3.9600   -0.5700 C   0  0  0  0  0  0  0  0  0  0  0  0
   -2.3580   -3.4830   -0.8610 C   0  0  0  0  0  0  0  0  0  0  0  0
   -2.6110   -2.1470   -0.7950 C   0  0  0  0  0  0  0  0  0  0  0  0
   -1.6090   -1.2880   -0.4470 C   0  0  0  0  0  0  0  0  0  0  0  0
  1  2  2  0
  2  3  1  0
  3  4  2  0
  4  5  1  0
  5  6  2  0
  6  7  1  0
  7  8  3  0
  8  9  1  0
  9 10  2  0
 10 11  1  0
 11 12  2  0
 12 13  1  0
 13 14  2  0
  1  6  1  0
  9 14  1  0
M  END
$$$$

     RDKit          3D

  9  9  0  0  0  0  0  0  0  0999 V2000
    0.7380    0.7040   -1.1180 C   0  0  0  0  0  0  0  0  0  0  0  0
    1.6670    0.5290   -0.0980 C   0  0  0  0  0  0  0  0  0  0  0  0
    1.2410    0.5550    1.2460 C   0  0  0  0  0  0  0  0  0  0  0  0
   -0.1200    0.7790    1.4780 C   0  0  0  0  0  0  0  0  0  0  0  0
   -1.0010    0.9440    0.4100 C   0  0  0  0  0  0  0  0  0  0  0  0
   -0.5730    0.8820   -0.8630 C   0  0  0  0  0  0  0  0  0  0  0  0
   -1.5050    1.0270   -1.9340 C   0  0  0  0  0  0  0  0  0  0  0  0
   -1.8620    2.3330   -2.3460 C   0  0  0  0  0  0  0  0  0  0  0  0
   -2.7870    2.4330   -3.4270 C   0  0  0  0  0  0  0  0  0  0  0  0
  1  2  2  0
  2  3  1  0
  3  4  2  0
  4  5  1  0
  5  6  2  0
  6  7  1  0
  7  8  3  0
  8  9  1  0
  1  6  1  0
M  END
$$$$

     RDKit          3D

  4  3  0  0  0  0  0  0  0  0999 V2000
    0.4750    1.5450   -1.1010 C   0  0  0  0  0  0  0  0  0  0  0  0
    1.6720    1.0900   -1.3790 C   0  0  0  0  0  0  0  0  0  0  0  0
    2.7440    0.7780   -0.8360 C   0  0  0  0  0  0  0  0  0  0  0  0
    3.9700    0.3550   -1.0840 C   0  0  0  0  0  0  0  0  0  0  0  0
  1  2  1  0
  2  3  3  0
  3  4  1  0
M  END
$$$$

     RDKit          3D

  8  8  0  0  0  0  0  0  0  0999 V2000
    1.1480    0.1400    0.8680 C   0  0  0  0  0  0  0  0  0  0  0  0
    1.4770    1.3670    0.3060 C   0  0  0  0  0  0  0  0  0  0  0  0
    1.0210    2.5360    0.9410 C   0  0  0  0  0  0  0  0  0  0  0  0
    0.2740    2.4510    2.1340 C   0  0  0  0  0  0  0  0  0  0  0  0
   -0.0140    1.1770    2.6250 C   0  0  0  0  0  0  0  0  0  0  0  0
    0.4060    0.0520    2.0000 C   0  0  0  0  0  0  0  0  0  0  0  0
    0.0630   -1.2440    2.5500 C   0  0  0  0  0  0  0  0  0  0  0  0
    0.3290   -1.5100    3.8850 C   0  0  0  0  0  0  0  0  0  0  0  0
  1  2  2  0
  2  3  1  0
  3  4  2  0
  4  5  1  0
  5  6  2  0
  6  7  1  0
  7  8  3  0
  1  6  1  0
M  END
$$$$

     RDKit          3D

  6  5  0  0  0  0  0  0  0  0999 V2000
    2.0410    0.7420   -2.4780 C   0  0  0  0  0  0  0  0  0  0  0  0
    0.9520    0.5010   -1.6250 C   0  0  0  0  0  0  0  0  0  0  0  0
    0.3990   -0.8190   -1.6040 C   0  0  0  0  0  0  0  0  0  0  0  0
   -0.7460   -1.0310   -0.6920 C   0  0  0  0  0  0  0  0  0  0  0  0
   -1.3290   -2.3240   -0.6370 C   0  0  0  0  0  0  0  0  0  0  0  0
   -2.4050   -2.4660    0.2210 C   0  0  0  0  0  0  0  0  0  0  0  0
  1  2  1  0
  2  3  3  0
  3  4  1  0
  4  5  3  0
  5  6  1  0
M  END
$$$$

     RDKit          3D

  7  6  0  0  0  0  0  0  0  0999 V2000
    1.3490   -0.5450    4.0020 C   0  0  0  0  0  0  0  0  0  0  0  0
    1.1400   -1.1500    2.7210 C   0  0  0  0  0  0  0  0  0  0  0  0
    0.9750   -0.2700    1.6040 C   0  0  0  0  0  0  0  0  0  0  0  0
    0.7650   -0.7430    0.2800 C   0  0  0  0  0  0  0  0  0  0  0  0
    0.7020   -1.8840   -0.0450 O   0  0  0  0  0  0  0  0  0  0  0  0
    0.6240    0.1700   -0.7080 O   0  0  0  0  0  0  0  0  0  0  0  0
    0.4160   -0.0800   -2.0240 C   0  0  0  0  0  0  0  0  0  0  0  0
  1  2  1  0
  2  3  3  0
  3  4  1  0
  4  5  2  0
  4  6  1  0
  6  7  1  0
M  END
$$$$

     RDKit          3D

  9  9  0  0  0  0  0  0  0  0999 V2000
    0.3070    0.6750   -0.8310 C   0  0  0  0  0  0  0  0  0  0  0  0
   -0.8110    0.9410   -1.6080 C   0  0  0  0  0  0  0  0  0  0  0  0
   -0.6370    1.4960   -2.8840 C   0  0  0  0  0  0  0  0  0  0  0  0
    0.6710    1.7560   -3.2940 C   0  0  0  0  0  0  0  0  0  0  0  0
    1.7260    1.4590   -2.4650 C   0  0  0  0  0  0  0  0  0  0  0  0
    1.5500    0.9290   -1.2550 C   0  0  0  0  0  0  0  0  0  0  0  0
    2.6880    0.6250   -0.4340 C   0  0  0  0  0  0  0  0  0  0  0  0
    2.5820    0.3640    0.9200 C   0  0  0  0  0  0  0  0  0  0  0  0
    3.7330    0.1090    1.6800 C   0  0  0  0  0  0  0  0  0  0  0  0
  1  2  2  0
  2  3  1  0
  3  4  2  0
  4  5  1  0
  5  6  2  0
  6  7  1  0
  7  8  1  0
  8  9  3  0
  1  6  1  0
M  END
$$$$

     RDKit          3D

 16 17  0  0  0  0  0  0  0  0999 V2000
   -0.5420    0.3160   -4.3810 C   0  0  0  0  0  0  0  0  0  0  0  0
   -0.8670    1.0070   -5.4890 C   0  0  0  0  0  0  0  0  0  0  0  0
   -0.9740    2.3570   -5.4590 C   0  0  0  0  0  0  0  0  0  0  0  0
   -0.7430    2.9940   -4.2610 C   0  0  0  0  0  0  0  0  0  0  0  0
   -0.4020    2.2780   -3.1810 C   0  0  0  0  0  0  0  0  0  0  0  0
   -0.3150    0.9170   -3.1720 C   0  0  0  0  0  0  0  0  0  0  0  0
    0.0660    0.1750   -1.9400 C   0  0  0  0  0  0  0  0  0  0  0  0
   -0.6020   -0.9230   -1.4600 C   0  0  0  0  0  0  0  0  0  0  0  0
   -0.1530   -1.5080   -0.2240 C   0  0  0  0  0  0  0  0  0  0  0  0
   -0.6130   -2.7080    0.1620 C   0  0  0  0  0  0  0  0  0  0  0  0
   -0.2560   -3.3780    1.4210 C   0  0  0  0  0  0  0  0  0  0  0  0
   -1.0860   -4.3170    1.9320 C   0  0  0  0  0  0  0  0  0  0  0  0
   -0.8000   -4.9680    3.0960 C   0  0  0  0  0  0  0  0  0  0  0  0
    0.3910   -4.6810    3.7580 C   0  0  0  0  0  0  0  0  0  0  0  0
    1.2450   -3.7460    3.2380 C   0  0  0  0  0  0  0  0  0  0  0  0
    0.9150   -3.0970    2.0790 C   0  0  0  0  0  0  0  0  0  0  0  0
  1  2  2  0
  2  3  1  0
  3  4  2  0
  4  5  1  0
  5  6  2  0
  6  7  1  0
  7  8  1  0
  8  9  3  0
  9 10  1  0
 10 11  1  0
 11 12  2  0
 12 13  1  0
 13 14  2  0
 14 15  1  0
 15 16  2  0
  1  6  1  0
 11 16  1  0
M  END
$$$$

     RDKit          3D

  3  2  0  0  0  0  0  0  0  0999 V2000
   -4.0570    0.7600   -1.0430 C   0  0  0  0  0  0  0  0  0  0  0  0
   -4.4780    0.7120    0.0640 C   0  0  0  0  0  0  0  0  0  0  0  0
   -5.0270    0.7060    0.8650 N   0  0  0  0  0  0  0  0  0  0  0  0
  1  2  1  0
  2  3  3  0
M  END
$$$$

     RDKit          3D

  8  8  0  0  0  0  0  0  0  0999 V2000
    0.9800    2.1640    1.1880 C   0  0  0  0  0  0  0  0  0  0  0  0
    0.9800    2.9860    2.2790 C   0  0  0  0  0  0  0  0  0  0  0  0
    0.1040    2.7290    3.3110 C   0  0  0  0  0  0  0  0  0  0  0  0
   -0.7330    1.6530    3.2110 C   0  0  0  0  0  0  0  0  0  0  0  0
   -0.6820    0.8610    2.0990 C   0  0  0  0  0  0  0  0  0  0  0  0
    0.1520    1.1070    1.0860 C   0  0  0  0  0  0  0  0  0  0  0  0
    0.1470    0.2580   -0.0610 C   0  0  0  0  0  0  0  0  0  0  0  0
    1.1500    0.0920   -0.8920 N   0  0  0  0  0  0  0  0  0  0  0  0
  1  2  2  0
  2  3  1  0
  3  4  2  0
  4  5  1  0
  5  6  2  0
  6  7  1  0
  7  8  3  0
  1  6  1  0
M  END
$$$$

     RDKit          3D

  5  4  0  0  0  0  0  0  0  0999 V2000
   -0.7350   -0.9150    2.8580 C   0  0  0  0  0  0  0  0  0  0  0  0
   -0.3350   -0.0900    1.9900 N   0  0  0  0  0  0  0  0  0  0  0  0
    0.0320    0.5870    1.2980 C   0  0  0  0  0  0  0  0  0  0  0  0
    0.3670    1.2710    0.6100 N   0  0  0  0  0  0  0  0  0  0  0  0
    0.7820    2.0860   -0.2430 C   0  0  0  0  0  0  0  0  0  0  0  0
  1  2  1  0
  2  3  2  0
  3  4  2  0
  4  5  1  0
M  END
$$$$

     RDKit          3D

 15 16  0  0  0  0  0  0  0  0999 V2000
    4.2340    4.4140   -0.0050 C   0  0  0  0  0  0  0  0  0  0  0  0
    5.0700    5.3690   -0.5310 C   0  0  0  0  0  0  0  0  0  0  0  0
    5.1740    5.4760   -1.9120 C   0  0  0  0  0  0  0  0  0  0  0  0
    4.4350    4.6460   -2.7050 C   0  0  0  0  0  0  0  0  0  0  0  0
    3.5890    3.7180   -2.1270 C   0  0  0  0  0  0  0  0  0  0  0  0
    3.4640    3.6180   -0.7700 C   0  0  1  0  0  0  0  0  0  0  0  0
    2.6520    2.7070   -0.2010 N   0  0  0  0  0  0  0  0  0  0  0  0
    1.3440    2.3330   -0.3700 C   0  0  0  0  0  0  0  0  0  0  0  0
    0.9390    1.1780    0.3200 N   0  0  0  0  0  0  0  0  0  0  0  0
   -0.2210    0.6070    0.4600 C   0  0  0  0  0  0  0  0  0  0  0  0
   -1.3710    1.1750   -0.0580 C   0  0  0  0  0  0  0  0  0  0  0  0
   -2.5960    0.5630    0.0940 C   0  0  0  0  0  0  0  0  0  0  0  0
   -2.6950   -0.6330    0.7740 C   0  0  0  0  0  0  0  0  0  0  0  0
   -1.5260   -1.2140    1.3140 C   0  0  0  0  0  0  0  0  0  0  0  0
   -0.3320   -0.5510    1.1330 C   0  0  0  0  0  0  0  0  0  0  0  0
  1  2  1  0
  2  3  1  0
  3  4  1  0
  4  5  1  0
  5  6  1  0
  6  7  1  1
  7  8  2  0
  8  9  2  0
  9 10  1  0
 10 11  1  0
 11 12  1  0
 12 13  1  0
 13 14  1  0
 14 15  1  0
  1  6  1  0
 10 15  1  0
M  END
$$$$

     RDKit          3D

  4  3  0  0  0  0  0  0  0  0999 V2000
   -1.9590   -0.7220    2.5400 C   0  0  0  0  0  0  0  0  0  0  0  0
   -1.1640   -0.6010    1.6690 N   0  0  0  0  0  0  0  0  0  0  0  0
   -0.0230   -0.3410    1.0960 N   0  0  0  0  0  0  0  0  0  0  0  0
    0.5280   -0.1520    0.2710 N   0  0  0  0  0  0  0  0  0  0  0  0
  1  2  1  0
  2  3  2  0
  3  4  2  0
M  CHG  2   3   1   4  -1
M  END
$$$$

     RDKit          3D

  9  9  0  0  0  0  0  0  0  0999 V2000
   -0.5380   -0.2670    0.2210 C   0  0  0  0  0  0  0  0  0  0  0  0
   -1.7020   -0.9220    0.6250 C   0  0  0  0  0  0  0  0  0  0  0  0
   -2.6930   -1.1510   -0.3290 C   0  0  0  0  0  0  0  0  0  0  0  0
   -2.5250   -0.7320   -1.6590 C   0  0  0  0  0  0  0  0  0  0  0  0
   -1.3340   -0.0810   -2.0070 C   0  0  0  0  0  0  0  0  0  0  0  0
   -0.3530    0.1490   -1.0790 C   0  0  0  0  0  0  0  0  0  0  0  0
    0.7340    0.7530   -1.4050 N   0  0  0  0  0  0  0  0  0  0  0  0
    1.5110    1.2490   -1.8940 N   0  0  0  0  0  0  0  0  0  0  0  0
    2.4660    1.7760   -2.2190 N   0  0  0  0  0  0  0  0  0  0  0  0
  1  2  2  0
  2  3  1  0
  3  4  2  0
  4  5  1  0
  5  6  2  0
  6  7  1  0
  7  8  2  0
  8  9  2  0
  1  6  1  0
M  CHG  2   8   1   9  -1
M  END
$$$$

     RDKit          3D

  3  2  0  0  0  0  0  0  0  0999 V2000
   -5.6990   -3.8640    1.1490 C   0  0  0  0  0  0  0  0  0  0  0  0
   -6.2350   -4.0900    0.1840 N   0  0  0  0  0  0  0  0  0  0  0  0
   -6.5330   -4.2810   -0.8220 C   0  0  0  0  0  0  0  0  0  0  0  0
  1  2  1  0
  2  3  3  0
M  CHG  2   2   1   3  -1
M  END
$$$$

     RDKit          3D

  7  7  0  0  0  0  0  0  0  0999 V2000
    0.6850   -2.2410   -2.4710 C   0  0  0  0  0  0  0  0  0  0  0  0
    0.7110   -2.2310   -1.0660 C   0  0  0  0  0  0  0  0  0  0  0  0
    1.4960   -1.2850   -0.3710 C   0  0  0  0  0  0  0  0  0  0  0  0
    2.2460   -0.3610   -1.1170 C   0  0  0  0  0  0  0  0  0  0  0  0
    2.2330   -0.3610   -2.5190 C   0  0  0  0  0  0  0  0  0  0  0  0
    1.4410   -1.3100   -3.1600 C   0  0  0  0  0  0  0  0  0  0  0  0
    1.4300   -1.3060   -4.4730 O   0  0  0  0  0  0  0  0  0  0  0  0
  1  2  2  0
  2  3  1  0
  3  4  2  0
  4  5  1  0
  5  6  2  0
  6  7  1  0
  1  6  1  0
M  END
$$$$

     RDKit          3D

  8  8  0  0  0  0  0  0  0  0999 V2000
    1.6170    0.4400   -1.1330 C   0  0  0  0  0  0  0  0  0  0  0  0
    2.6520   -0.5270   -1.1160 C   0  0  0  0  0  0  0  0  0  0  0  0
    2.3710   -1.8830   -0.9470 C   0  0  0  0  0  0  0  0  0  0  0  0
    1.0220   -2.3490   -0.7960 C   0  0  0  0  0  0  0  0  0  0  0  0
   -0.0440   -1.3600   -0.8400 C   0  0  0  0  0  0  0  0  0  0  0  0
   -1.2920   -1.7730   -0.6650 O   0  0  0  0  0  0  0  0  0  0  0  0
    0.2520   -0.0050   -0.9810 C   0  0  0  0  0  0  0  0  0  0  0  0
   -0.7320    0.9080   -1.0120 O   0  0  0  0  0  0  0  0  0  0  0  0
  1  2  2  0
  2  3  1  0
  3  4  2  0
  4  5  1  0
  5  6  1  0
  5  7  2  0
  7  8  1  0
  1  7  1  0
M  END
$$$$

     RDKit          3D

  8  8  0  0  0  0  0  0  0  0999 V2000
    1.0480    1.0150    1.7820 C   0  0  0  0  0  0  0  0  0  0  0  0
   -0.2020    0.6240    1.1950 C   0  0  0  0  0  0  0  0  0  0  0  0
   -0.4460   -0.7070    0.7720 C   0  0  0  0  0  0  0  0  0  0  0  0
    0.5970   -1.6380    0.9250 C   0  0  0  0  0  0  0  0  0  0  0  0
    0.3790   -2.8970    0.5340 O   0  0  0  0  0  0  0  0  0  0  0  0
    1.8740   -1.3130    1.5150 C   0  0  0  0  0  0  0  0  0  0  0  0
    2.0480    0.0240    1.9080 C   0  0  0  0  0  0  0  0  0  0  0  0
    3.2190    0.4090    2.4700 O   0  0  0  0  0  0  0  0  0  0  0  0
  1  2  2  0
  2  3  1  0
  3  4  2  0
  4  5  1  0
  4  6  1  0
  6  7  2  0
  7  8  1  0
  1  7  1  0
M  END
$$$$

     RDKit          3D

  8  8  0  0  0  0  0  0  0  0999 V2000
   -1.6460    0.1100    3.2530 C   0  0  0  0  0  0  0  0  0  0  0  0
   -2.0540   -1.1050    2.6780 C   0  0  0  0  0  0  0  0  0  0  0  0
   -2.1890   -1.2170    1.2800 C   0  0  0  0  0  0  0  0  0  0  0  0
   -2.5710   -2.3550    0.7470 O   0  0  0  0  0  0  0  0  0  0  0  0
   -1.8980   -0.1000    0.4310 C   0  0  0  0  0  0  0  0  0  0  0  0
   -1.4800    1.1110    0.9880 C   0  0  0  0  0  0  0  0  0  0  0  0
   -1.3540    1.2270    2.4060 C   0  0  0  0  0  0  0  0  0  0  0  0
   -0.9600    2.3680    2.9450 O   0  0  0  0  0  0  0  0  0  0  0  0
  1  2  2  0
  2  3  1  0
  3  4  1  0
  3  5  2  0
  5  6  1  0
  6  7  2  0
  7  8  1  0
  1  7  1  0
M  END
$$$$

     RDKit          3D

  9  9  0  0  0  0  0  0  0  0999 V2000
   -0.0380    3.4240   -0.7320 C   0  0  0  0  0  0  0  0  0  0  0  0
    1.1450    4.2480   -0.6580 C   0  0  0  0  0  0  0  0  0  0  0  0
    2.1820    3.7730    0.2370 C   0  0  0  0  0  0  0  0  0  0  0  0
    1.6120    3.4190    1.6280 C   0  0  0  0  0  0  0  0  0  0  0  0
    2.6340    2.8290    2.4130 O   0  0  0  0  0  0  0  0  0  0  0  0
    0.4850    2.3720    1.4460 C   0  0  0  0  0  0  0  0  0  0  0  0
   -0.0320    2.0900    2.7460 O   0  0  0  0  0  0  0  0  0  0  0  0
   -0.5900    3.0620    0.6460 C   0  0  0  0  0  0  0  0  0  0  0  0
   -1.6870    2.1840    0.4860 O   0  0  0  0  0  0  0  0  0  0  0  0
  1  2  2  0
  2  3  1  0
  3  4  2  0
  4  5  1  0
  4  6  1  0
  6  7  1  0
  6  8  2  0
  8  9  1  0
  1  8  1  0
M  END
$$$$

     RDKit          3D

  9  9  0  0  0  0  0  0  0  0999 V2000
   -3.3260    1.0000   -0.8840 C   0  0  0  0  0  0  0  0  0  0  0  0
   -2.4920   -0.1410   -0.6120 C   0  0  0  0  0  0  0  0  0  0  0  0
   -1.4440    0.1110    0.4050 C   0  0  0  0  0  0  0  0  0  0  0  0
   -0.6640   -1.0350    0.5770 O   0  0  0  0  0  0  0  0  0  0  0  0
   -0.6090    1.3150    0.1460 C   0  0  0  0  0  0  0  0  0  0  0  0
   -1.4750    2.5080   -0.0200 C   0  0  0  0  0  0  0  0  0  0  0  0
   -0.7140    3.6380   -0.4260 O   0  0  0  0  0  0  0  0  0  0  0  0
   -2.5020    2.2570   -1.1690 C   0  0  0  0  0  0  0  0  0  0  0  0
   -3.3630    3.3780   -1.2670 O   0  0  0  0  0  0  0  0  0  0  0  0
  1  2  2  0
  2  3  1  0
  3  4  1  0
  3  5  2  0
  5  6  1  0
  6  7  1  0
  6  8  2  0
  8  9  1  0
  1  8  1  0
M  END
$$$$

     RDKit          3D

  9  9  0  0  0  0  0  0  0  0999 V2000
    1.9450   -0.3130    1.5940 C   0  0  0  0  0  0  0  0  0  0  0  0
    1.0190   -0.5110    0.5230 C   0  0  0  0  0  0  0  0  0  0  0  0
    0.7720    0.5700   -0.2930 O   0  0  0  0  0  0  0  0  0  0  0  0
   -0.0370   -1.5140    0.6050 C   0  0  0  0  0  0  0  0  0  0  0  0
    0.2430   -2.5990    1.4960 C   0  0  0  0  0  0  0  0  0  0  0  0
   -0.7250   -3.6020    1.6130 O   0  0  0  0  0  0  0  0  0  0  0  0
    1.1650   -2.4790    2.5960 C   0  0  0  0  0  0  0  0  0  0  0  0
    2.1750   -1.4710    2.4340 C   0  0  0  0  0  0  0  0  0  0  0  0
    3.0430   -1.2680    3.4880 O   0  0  0  0  0  0  0  0  0  0  0  0
  1  2  2  0
  2  3  1  0
  2  4  1  0
  4  5  2  0
  5  6  1  0
  5  7  1  0
  7  8  2  0
  8  9  1  0
  1  8  1  0
M  END
$$$$

     RDKit          3D

  7  7  0  0  0  0  0  0  0  0999 V2000
   -3.7880   -0.5800    1.5160 O   0  0  0  0  0  0  0  0  0  0  0  0
   -3.4020    0.6740    1.6510 C   0  0  0  0  0  0  0  0  0  0  0  0
   -4.1330    1.7470    1.6800 N   0  0  0  0  0  0  0  0  0  0  0  0
   -2.0250    0.7310    1.7580 C   0  0  0  0  0  0  0  0  0  0  0  0
   -1.3030    1.7870    1.7490 F   0  0  0  0  0  0  0  0  0  0  0  0
   -1.5530   -0.5640    1.6310 C   0  0  0  0  0  0  0  0  0  0  0  0
   -2.6670   -1.3530    1.4980 C   0  0  0  0  0  0  0  0  0  0  0  0
  1  2  1  0
  2  3  1  0
  2  4  2  0
  4  5  1  0
  4  6  1  0
  6  7  2  0
  1  7  1  0
M  END
$$$$

     RDKit          3D

  8  8  0  0  0  0  0  0  0  0999 V2000
   -0.5690   -0.3380   -0.0340 O   0  0  0  0  0  0  0  0  0  0  0  0
    0.2360   -1.2010    0.5840 C   0  0  0  0  0  0  0  0  0  0  0  0
    0.5430   -1.1880    1.8970 N   0  0  0  0  0  0  0  0  0  0  0  0
    0.7320   -2.1220   -0.3240 C   0  0  0  0  0  0  0  0  0  0  0  0
    1.2550   -3.4320   -0.0000 C   0  0  0  0  0  0  0  0  0  0  0  0
    1.7730   -4.0900   -1.0070 O   0  0  0  0  0  0  0  0  0  0  0  0
    0.0280   -1.9390   -1.5250 C   0  0  0  0  0  0  0  0  0  0  0  0
   -0.6600   -0.8000   -1.3570 C   0  0  0  0  0  0  0  0  0  0  0  0
  1  2  1  0
  2  3  1  0
  2  4  2  0
  4  5  1  0
  5  6  1  0
  4  7  1  0
  7  8  2  0
  1  8  1  0
M  END
$$$$

     RDKit          3D

  9  9  0  0  0  0  0  0  0  0999 V2000
    1.5030   -1.1620   -0.1070 O   0  0  0  0  0  0  0  0  0  0  0  0
    0.7480   -1.1610    1.0020 C   0  0  0  0  0  0  0  0  0  0  0  0
    1.2480   -1.9240    2.1420 C   0  0  0  0  0  0  0  0  0  0  0  0
    2.0210   -1.2350    2.9650 O   0  0  0  0  0  0  0  0  0  0  0  0
   -0.6290   -1.2610    0.6370 C   0  0  0  0  0  0  0  0  0  0  0  0
   -1.5320   -0.8020    1.7210 C   0  0  0  0  0  0  0  0  0  0  0  0
   -2.6750   -0.3040    1.3710 O   0  0  0  0  0  0  0  0  0  0  0  0
   -0.6440   -0.6820   -0.6240 C   0  0  0  0  0  0  0  0  0  0  0  0
    0.6370   -0.7780   -1.1190 C   0  0  0  0  0  0  0  0  0  0  0  0
  1  2  1  0
  2  3  1  0
  3  4  1  0
  2  5  2  0
  5  6  1  0
  6  7  1  0
  5  8  1  0
  8  9  2  0
  1  9  1  0
M  END
$$$$

     RDKit          3D

  8  8  0  0  0  0  0  0  0  0999 V2000
    0.8940   -1.6710   -1.0460 O   0  0  0  0  0  0  0  0  0  0  0  0
    0.6560   -2.7160   -0.2530 C   0  0  0  0  0  0  0  0  0  0  0  0
    0.5770   -4.0130   -0.8390 C   0  0  0  0  0  0  0  0  0  0  0  0
    1.3850   -4.2240   -1.8470 O   0  0  0  0  0  0  0  0  0  0  0  0
   -0.1590   -2.2990    0.8560 C   0  0  0  0  0  0  0  0  0  0  0  0
    0.2060   -3.0840    2.0550 N   0  0  0  0  0  0  0  0  0  0  0  0
    0.1760   -0.9160    0.9150 C   0  0  0  0  0  0  0  0  0  0  0  0
    0.7300   -0.5470   -0.2740 C   0  0  0  0  0  0  0  0  0  0  0  0
  1  2  1  0
  2  3  1  0
  3  4  1  0
  2  5  2  0
  5  6  1  0
  5  7  1  0
  7  8  2  0
  1  8  1  0
M  END
$$$$

     RDKit          3D

  6  6  0  0  0  0  0  0  0  0999 V2000
   -0.0280   -0.0920   -0.3250 C   0  0  0  0  0  0  0  0  0  0  0  0
    0.1430    0.5860    0.8700 C   0  0  0  0  0  0  0  0  0  0  0  0
    0.5160   -0.0460    2.0260 C   0  0  0  0  0  0  0  0  0  0  0  0
    0.7340   -1.4200    2.0060 C   0  0  0  0  0  0  0  0  0  0  0  0
    0.5740   -2.1420    0.8240 C   0  0  0  0  0  0  0  0  0  0  0  0
    0.1950   -1.4860   -0.3490 C   0  0  0  0  0  0  0  0  0  0  0  0
  1  2  1  0
  2  3  1  0
  3  4  1  0
  4  5  1  0
  5  6  1  0
  1  6  1  0
M  END
$$$$

     RDKit          3D

  8  8  0  0  0  0  0  0  0  0999 V2000
    0.4710   -2.7080   -2.0820 C   0  0  0  0  0  0  0  0  0  0  0  0
   -0.6160   -1.9340   -2.4050 C   0  0  0  0  0  0  0  0  0  0  0  0
   -1.2150   -1.1780   -1.4270 C   0  0  0  0  0  0  0  0  0  0  0  0
   -0.7130   -1.2150   -0.1490 C   0  0  0  0  0  0  0  0  0  0  0  0
    0.3750   -2.0050    0.1180 C   0  0  0  0  0  0  0  0  0  0  0  0
    0.9480   -2.7350   -0.8240 C   0  0  0  0  0  0  0  0  0  0  0  0
    2.0430   -3.5170   -0.4940 C   0  0  0  0  0  0  0  0  0  0  0  0
    2.9500   -4.2350   -0.6510 N   0  0  0  0  0  0  0  0  0  0  0  0
  1  2  1  0
  2  3  1  0
  3  4  1  0
  4  5  1  0
  5  6  1  0
  6  7  1  0
  7  8  1  0
  1  6  1  0
M  END
$$$$

     RDKit          3D

  7  7  0  0  0  0  0  0  0  0999 V2000
   -0.0530   -2.6220   -1.9130 C   0  0  0  0  0  0  0  0  0  0  0  0
   -0.4970   -1.3220   -2.0790 C   0  0  0  0  0  0  0  0  0  0  0  0
    0.0010   -0.2880   -1.2880 C   0  0  0  0  0  0  0  0  0  0  0  0
    0.9660   -0.5950   -0.3160 C   0  0  0  0  0  0  0  0  0  0  0  0
    1.4100   -1.9010   -0.1470 C   0  0  0  0  0  0  0  0  0  0  0  0
    0.8960   -2.9030   -0.9470 C   0  0  0  0  0  0  0  0  0  0  0  0
    1.3370   -4.1800   -0.7730 N   0  0  0  0  0  0  0  0  0  0  0  0
  1  2  1  0
  2  3  1  0
  3  4  1  0
  4  5  1  0
  5  6  1  0
  6  7  1  0
  1  6  1  0
M  END
$$$$

     RDKit          3D

 12 13  0  0  0  0  0  0  0  0999 V2000
    0.8530   -0.4980   -2.9600 C   0  0  0  0  0  0  0  0  0  0  0  0
   -0.1320   -0.3610   -3.9550 C   0  0  0  0  0  0  0  0  0  0  0  0
   -0.6330    0.9190   -4.2570 C   0  0  0  0  0  0  0  0  0  0  0  0
   -0.1520    2.0320   -3.5640 C   0  0  0  0  0  0  0  0  0  0  0  0
    0.8340    1.8650   -2.5640 C   0  0  0  0  0  0  0  0  0  0  0  0
    1.3590    0.6020   -2.2450 C   0  0  0  0  0  0  0  0  0  0  0  0
    2.3830    0.4530   -1.2100 C   0  0  0  0  0  0  0  0  0  0  0  0
    3.0040   -0.7860   -0.9900 C   0  0  0  0  0  0  0  0  0  0  0  0
    4.0060   -0.9420    0.0100 C   0  0  0  0  0  0  0  0  0  0  0  0
    4.3730    0.1740    0.7960 C   0  0  0  0  0  0  0  0  0  0  0  0
    3.7610    1.4160    0.5900 C   0  0  0  0  0  0  0  0  0  0  0  0
    2.7650    1.5440   -0.4230 C   0  0  0  0  0  0  0  0  0  0  0  0
  1  2  1  0
  2  3  1  0
  3  4  1  0
  4  5  1  0
  5  6  1  0
  6  7  1  0
  7  8  1  0
  8  9  1  0
  9 10  1  0
 10 11  1  0
 11 12  1  0
  1  6  1  0
  7 12  1  0
M  END
$$$$

     RDKit          3D

  8  8  0  0  0  0  0  0  0  0999 V2000
    0.4090    1.5370    1.0180 C   0  0  0  0  0  0  0  0  0  0  0  0
   -0.1900    2.0550   -0.2330 C   0  0  1  0  0  0  0  0  0  0  0  0
   -1.0710    1.1650   -0.8440 C   0  0  0  0  0  0  0  0  0  0  0  0
   -2.4080    1.4070   -1.1490 C   0  0  0  0  0  0  0  0  0  0  0  0
   -3.0110    2.6610   -0.8300 C   0  0  0  0  0  0  0  0  0  0  0  0
   -2.1940    3.6530   -0.2000 C   0  0  0  0  0  0  0  0  0  0  0  0
   -0.8820    3.4010    0.0930 C   0  0  0  0  0  0  0  0  0  0  0  0
    0.9410    2.4320   -1.1720 C   0  0  0  0  0  0  0  0  0  0  0  0
  2  1  1  1
  2  3  1  0
  3  4  1  0
  4  5  1  0
  5  6  1  0
  6  7  1  0
  2  8  1  0
  2  7  1  0
M  END
$$$$

     RDKit          3D

  7  7  0  0  0  0  0  0  0  0999 V2000
    0.2070   -0.5650    0.1510 C   0  0  0  0  0  0  0  0  0  0  0  0
   -0.8120    0.0980   -0.5930 C   0  0  0  0  0  0  0  0  0  0  0  0
   -1.8720    0.7570    0.0740 C   0  0  0  0  0  0  0  0  0  0  0  0
   -1.8980    0.7360    1.4870 C   0  0  0  0  0  0  0  0  0  0  0  0
   -0.8830    0.0780    2.2340 C   0  0  0  0  0  0  0  0  0  0  0  0
    0.1220   -0.5510    1.5290 C   0  0  0  0  0  0  0  0  0  0  0  0
    1.0710   -1.1630    2.2210 O   0  0  0  0  0  0  0  0  0  0  0  0
  1  2  1  0
  2  3  1  0
  3  4  1  0
  4  5  1  0
  5  6  1  0
  6  7  1  0
  1  6  1  0
M  END
$$$$

     RDKit          3D

  8  8  0  0  0  0  0  0  0  0999 V2000
   -0.3300   -1.4580   -0.5660 C   0  0  0  0  0  0  0  0  0  0  0  0
    0.0480   -2.4560    0.3870 C   0  0  0  0  0  0  0  0  0  0  0  0
   -0.0200   -2.2140    1.7560 C   0  0  0  0  0  0  0  0  0  0  0  0
   -0.5490   -0.9750    2.2560 C   0  0  0  0  0  0  0  0  0  0  0  0
   -0.9170    0.0330    1.3080 C   0  0  2  0  0  0  0  0  0  0  0  0
   -1.4160    1.1730    1.7590 O   0  0  0  0  0  0  0  0  0  0  0  0
   -0.8640   -0.2030   -0.0610 C   0  0  1  0  0  0  0  0  0  0  0  0
   -1.2060    0.7250   -0.9350 O   0  0  0  0  0  0  0  0  0  0  0  0
  1  2  1  0
  2  3  1  0
  3  4  1  0
  4  5  1  0
  5  6  1  1
  5  7  1  0
  7  8  1  6
  1  7  1  0
M  END
$$$$

     RDKit          3D

  8  8  0  0  0  0  0  0  0  0999 V2000
   -2.6250    1.4830    2.4940 C   0  0  0  0  0  0  0  0  0  0  0  0
   -2.6040    2.9220    2.5680 C   0  0  0  0  0  0  0  0  0  0  0  0
   -1.7320    3.6930    1.7320 C   0  0  0  0  0  0  0  0  0  0  0  0
   -0.8830    2.9850    0.8340 C   0  0  0  0  0  0  0  0  0  0  0  0
   -0.0710    3.7190    0.0650 O   0  0  0  0  0  0  0  0  0  0  0  0
   -0.8650    1.5650    0.7180 C   0  0  0  0  0  0  0  0  0  0  0  0
   -1.7440    0.8560    1.5680 C   0  0  0  0  0  0  0  0  0  0  0  0
   -1.7880   -0.4870    1.5110 O   0  0  0  0  0  0  0  0  0  0  0  0
  1  2  1  0
  2  3  1  0
  3  4  1  0
  4  5  1  0
  4  6  1  0
  6  7  1  0
  7  8  1  0
  1  7  1  0
M  END
$$$$

     RDKit          3D

  8  8  0  0  0  0  0  0  0  0999 V2000
   -2.4120    1.4820    0.0610 C   0  0  0  0  0  0  0  0  0  0  0  0
   -1.9680    1.8590    1.3370 C   0  0  0  0  0  0  0  0  0  0  0  0
   -1.6310    0.8620    2.2890 C   0  0  0  0  0  0  0  0  0  0  0  0
   -1.2300    1.2030    3.4790 O   0  0  0  0  0  0  0  0  0  0  0  0
   -1.7120   -0.5140    1.9500 C   0  0  0  0  0  0  0  0  0  0  0  0
   -2.1310   -0.8960    0.6670 C   0  0  0  0  0  0  0  0  0  0  0  0
   -2.4820    0.1070   -0.2900 C   0  0  0  0  0  0  0  0  0  0  0  0
   -2.8850   -0.2260   -1.4810 O   0  0  0  0  0  0  0  0  0  0  0  0
  1  2  1  0
  2  3  1  0
  3  4  1  0
  3  5  1  0
  5  6  1  0
  6  7  1  0
  7  8  1  0
  1  7  1  0
M  END
$$$$

     RDKit          3D

  9  9  0  0  0  0  0  0  0  0999 V2000
    2.2220    0.0790    2.5060 C   0  0  0  0  0  0  0  0  0  0  0  0
    1.5670    1.0850    3.2850 C   0  0  0  0  0  0  0  0  0  0  0  0
    0.2560    0.8160    3.7640 C   0  0  0  0  0  0  0  0  0  0  0  0
   -0.6090    0.0560    2.8220 C   0  0  2  0  0  0  0  0  0  0  0  0
   -1.8320   -0.2520    3.3090 O   0  0  0  0  0  0  0  0  0  0  0  0
    0.0840   -1.0930    2.1970 C   0  0  1  0  0  0  0  0  0  0  0  0
   -0.7410   -1.7410    1.2980 O   0  0  0  0  0  0  0  0  0  0  0  0
    1.3200   -0.6400    1.5320 C   0  0  2  0  0  0  0  0  0  0  0  0
    1.9850   -1.7060    0.9340 O   0  0  0  0  0  0  0  0  0  0  0  0
  1  2  1  0
  2  3  1  0
  3  4  1  0
  4  5  1  1
  4  6  1  0
  6  7  1  6
  6  8  1  0
  8  9  1  1
  1  8  1  0
M  END
$$$$

     RDKit          3D

  9  9  0  0  0  0  0  0  0  0999 V2000
   -0.1810    0.6690    0.9740 C   0  0  0  0  0  0  0  0  0  0  0  0
    0.8150    0.7830   -0.0710 C   0  0  0  0  0  0  0  0  0  0  0  0
    0.3660    1.5600   -1.2470 C   0  0  1  0  0  0  0  0  0  0  0  0
    1.3580    1.6010   -2.2130 O   0  0  0  0  0  0  0  0  0  0  0  0
   -0.9570    1.1670   -1.8150 C   0  0  0  0  0  0  0  0  0  0  0  0
   -1.9830    1.1550   -0.7250 C   0  0  1  0  0  0  0  0  0  0  0  0
   -3.2190    0.6620   -1.2070 O   0  0  0  0  0  0  0  0  0  0  0  0
   -1.5500    0.2300    0.4450 C   0  0  2  0  0  0  0  0  0  0  0  0
   -2.5070    0.3380    1.4720 O   0  0  0  0  0  0  0  0  0  0  0  0
  1  2  1  0
  2  3  1  0
  3  4  1  6
  3  5  1  0
  5  6  1  0
  6  7  1  6
  6  8  1  0
  8  9  1  1
  1  8  1  0
M  END
$$$$

     RDKit          3D

  9  9  0  0  0  0  0  0  0  0999 V2000
    1.6960   -0.5150    0.2390 C   0  0  0  0  0  0  0  0  0  0  0  0
    1.6820   -1.9520    0.0200 C   0  0  0  0  0  0  0  0  0  0  0  0
    0.2500   -2.4750   -0.2190 C   0  0  1  0  0  0  0  0  0  0  0  0
    0.2700   -3.8950   -0.2360 O   0  0  0  0  0  0  0  0  0  0  0  0
   -0.6810   -2.0140    0.9470 C   0  0  2  0  0  0  0  0  0  0  0  0
   -1.9910   -2.4840    0.6450 O   0  0  0  0  0  0  0  0  0  0  0  0
   -0.6790   -0.5280    1.0830 C   0  0  0  0  0  0  0  0  0  0  0  0
    0.7280   -0.0530    1.2830 C   0  0  2  0  0  0  0  0  0  0  0  0
    0.8000    1.3260    1.3960 O   0  0  0  0  0  0  0  0  0  0  0  0
  1  2  1  0
  2  3  1  0
  3  4  1  1
  3  5  1  0
  5  6  1  6
  5  7  1  0
  7  8  1  0
  8  9  1  6
  1  8  1  0
M  END
$$$$

     RDKit          3D

  6  6  0  0  0  0  0  0  0  0999 V2000
    2.7660    1.8120   -1.9030 C   0  0  0  0  0  0  0  0  0  0  0  0
    2.0700    2.9430   -2.2060 C   0  0  0  0  0  0  0  0  0  0  0  0
    0.7130    2.9300   -2.3200 C   0  0  0  0  0  0  0  0  0  0  0  0
    0.0140    1.7860   -2.1030 C   0  0  0  0  0  0  0  0  0  0  0  0
    0.6640    0.6090   -1.8040 C   0  0  0  0  0  0  0  0  0  0  0  0
    2.0740    0.6320   -1.6760 N   0  0  0  0  0  0  0  0  0  0  0  0
  1  2  1  0
  2  3  1  0
  3  4  1  0
  4  5  1  0
  5  6  1  0
  1  6  1  0
M  END
$$$$

     RDKit          3D

  7  7  0  0  0  0  0  0  0  0999 V2000
   -0.3760   -1.3580    0.8280 C   0  0  0  0  0  0  0  0  0  0  0  0
    0.8200   -0.7160    1.0030 C   0  0  0  0  0  0  0  0  0  0  0  0
    0.9460    0.6670    0.7350 C   0  0  0  0  0  0  0  0  0  0  0  0
   -0.1890    1.3620    0.2560 C   0  0  0  0  0  0  0  0  0  0  0  0
   -1.3930    0.6920    0.0990 C   0  0  0  0  0  0  0  0  0  0  0  0
   -1.4460   -0.6480    0.3820 N   0  0  0  0  0  0  0  0  0  0  0  0
   -2.6410   -1.2850    0.2030 C   0  0  0  0  0  0  0  0  0  0  0  0
  1  2  1  0
  2  3  1  0
  3  4  1  0
  4  5  1  0
  5  6  1  0
  6  7  1  0
  1  6  1  0
M  END
$$$$

     RDKit          3D

 10 11  0  0  0  0  0  0  0  0999 V2000
    0.5900    2.7700   -1.9610 C   0  0  0  0  0  0  0  0  0  0  0  0
   -0.7850    2.7050   -2.1500 C   0  0  0  0  0  0  0  0  0  0  0  0
   -1.5110    1.6560   -1.6880 C   0  0  0  0  0  0  0  0  0  0  0  0
   -0.8590    0.5980   -1.0000 C   0  0  0  0  0  0  0  0  0  0  0  0
   -1.5720   -0.5200   -0.4940 C   0  0  0  0  0  0  0  0  0  0  0  0
   -0.9390   -1.5170    0.1560 C   0  0  0  0  0  0  0  0  0  0  0  0
    0.4670   -1.4560    0.3470 C   0  0  0  0  0  0  0  0  0  0  0  0
    1.1740   -0.4060   -0.1230 C   0  0  0  0  0  0  0  0  0  0  0  0
    0.5250    0.6610   -0.8170 C   0  0  0  0  0  0  0  0  0  0  0  0
    1.2460    1.7690   -1.3050 C   0  0  0  0  0  0  0  0  0  0  0  0
  1  2  1  0
  2  3  1  0
  3  4  1  0
  4  5  1  0
  5  6  1  0
  6  7  1  0
  7  8  1  0
  4  9  1  0
  9 10  1  0
  1 10  1  0
  8  9  1  0
M  END
$$$$

     RDKit          2D

  1  0  0  0  0  0  0  0  0  0999 V2000
    0.0000    0.0000    0.0000 C   0  0  0  0  0  0  0  0  0  0  0  0
M  END
$$$$

     RDKit          3D

  5  7  0  0  0  0  0  0  0  0999 V2000
    1.4100   -2.3140    3.7030 C   0  0  0  0  0  0  0  0  0  0  0  0
    0.9260   -2.0300    2.5850 C   0  0  0  0  0  0  0  0  0  0  0  0
    1.3400   -1.2020    1.6910 N   0  0  0  0  0  0  0  0  0  0  0  0
    0.2350   -1.4810    0.8650 C   0  0  0  0  0  0  0  0  0  0  0  0
   -0.1740   -2.3320    1.8400 C   0  0  0  0  0  0  0  0  0  0  0  0
  1  2  1  0
  2  3  1  0
  3  4  1  0
  4  5  1  0
  2  5  1  0
  4  2  1  0
  5  3  1  0
M  END
$$$$

     RDKit          3D

  5  6  0  0  0  0  0  0  0  0999 V2000
   -0.5400    2.4120   -1.3050 C   0  0  0  0  0  0  0  0  0  0  0  0
   -0.8130    1.2360   -0.8210 C   0  0  0  0  0  0  0  0  0  0  0  0
   -0.6220    0.2630   -0.0930 O   0  0  0  0  0  0  0  0  0  0  0  0
   -1.7430   -0.4270   -0.6100 C   0  0  0  0  0  0  0  0  0  0  0  0
   -2.0030    0.5040   -1.3780 C   0  0  0  0  0  0  0  0  0  0  0  0
  1  2  1  0
  2  3  1  0
  3  4  1  0
  4  5  1  0
  2  5  1  0
  4  2  1  0
M  END
$$$$

     RDKit          3D

  6  6  0  0  0  0  0  0  0  0999 V2000
    4.6090   -4.5630   -1.2400 C   0  0  0  0  0  0  0  0  0  0  0  0
    3.3530   -3.9290   -1.5400 C   0  0  0  0  0  0  0  0  0  0  0  0
    2.6670   -3.1810   -0.7240 O   0  0  0  0  0  0  0  0  0  0  0  0
    1.5770   -2.7880   -1.4660 C   0  0  0  0  0  0  0  0  0  0  0  0
    1.6260   -3.2640   -2.6860 C   0  0  0  0  0  0  0  0  0  0  0  0
    2.7300   -3.9900   -2.7670 C   0  0  0  0  0  0  0  0  0  0  0  0
  1  2  1  0
  2  3  1  0
  3  4  1  0
  4  5  1  0
  5  6  1  0
  2  6  1  0
M  END
$$$$
